xflr5 v6.57

 Calculated polar for: KC-135 Winglet (supercritical Whitcomb)

 1 1 Reynolds number fixed          Mach number fixed         

 xtrf =   1.000 (top)        1.000 (bottom)
 Mach =   0.000     Re =     1.200 e 6     Ncrit =   9.000

  alpha     CL        CD       CDp       Cm    Top Xtr Bot Xtr   Cpmin    Chinge    XCp    
 ------- -------- --------- --------- -------- ------- ------- -------- --------- ---------
 -12.000  -0.1279   0.06224   0.06091  -0.0498  0.9890  0.0050  -0.8668   0.0000   0.0000   0.0000  -0.1333
 -11.750  -0.1193   0.05918   0.05785  -0.0519  0.9875  0.0050  -0.8847   0.0000   0.0000   0.0000  -0.1789
 -11.500  -0.1108   0.05612   0.05479  -0.0541  0.9860  0.0051  -0.9051   0.0000   0.0000   0.0000  -0.2310
 -11.250  -0.1027   0.05306   0.05174  -0.0562  0.9846  0.0051  -0.9404   0.0000   0.0000   0.0000  -0.2903
 -11.000  -0.0952   0.04998   0.04866  -0.0585  0.9833  0.0051  -0.9939   0.0000   0.0000   0.0000  -0.3566
 -10.750  -0.4323   0.12102   0.11937  -0.0196  1.0000  0.0050  -1.6378   0.0000   0.0000   0.0000   0.1986
 -10.500  -0.4275   0.11732   0.11568  -0.0210  1.0000  0.0050  -1.6614   0.0000   0.0000   0.0000   0.1949
 -10.250  -0.4227   0.11359   0.11197  -0.0225  1.0000  0.0050  -1.6859   0.0000   0.0000   0.0000   0.1911
 -10.000  -0.4181   0.10988   0.10826  -0.0239  1.0000  0.0050  -1.7121   0.0000   0.0000   0.0000   0.1872
  -9.750  -0.4139   0.10619   0.10459  -0.0253  1.0000  0.0050  -1.7403   0.0000   0.0000   0.0000   0.1834
  -9.500  -0.4099   0.10250   0.10091  -0.0267  1.0000  0.0050  -1.7705   0.0000   0.0000   0.0000   0.1795
  -9.250  -0.4063   0.09881   0.09723  -0.0281  1.0000  0.0050  -1.8028   0.0000   0.0000   0.0000   0.1757
  -9.000  -0.4037   0.09520   0.09365  -0.0293  1.0000  0.0050  -1.8375   0.0000   0.0000   0.0000   0.1724
  -8.750  -0.4027   0.09174   0.09020  -0.0302  1.0000  0.0050  -1.8750   0.0000   0.0000   0.0000   0.1703
  -8.500  -0.4038   0.08846   0.08695  -0.0306  1.0000  0.0050  -1.9155   0.0000   0.0000   0.0000   0.1698
  -8.250  -0.4099   0.08573   0.08425  -0.0297  1.0000  0.0050  -1.9585   0.0000   0.0000   0.0000   0.1735
  -8.000  -0.4145   0.08272   0.08128  -0.0296  0.9994  0.0050  -2.0139   0.0000   0.0000   0.0000   0.1746
  -7.750  -0.4014   0.07727   0.07583  -0.0359  0.9963  0.0050  -2.0987   0.0000   0.0000   0.0000   0.1568
  -7.500  -0.3771   0.06882   0.06738  -0.0494  0.9917  0.0051  -2.3745   0.0000   0.0000   0.0000   0.1151
  -7.250  -0.3487   0.05110   0.04944  -0.0762  0.9848  0.0057  -3.0987   0.0000   0.0000   0.0000   0.0275
  -7.000  -0.3199   0.04530   0.04348  -0.0837  0.9823  0.0059  -3.1004   0.0000   0.0000   0.0000  -0.0159
  -6.750  -0.2888   0.04042   0.03842  -0.0897  0.9804  0.0060  -3.0945   0.0000   0.0000   0.0000  -0.0651
  -6.500  -0.2563   0.03616   0.03399  -0.0948  0.9786  0.0062  -3.0585   0.0000   0.0000   0.0000  -0.1245
  -6.250  -0.2230   0.03251   0.03015  -0.0991  0.9766  0.0064  -2.9764   0.0000   0.0000   0.0000  -0.1998
  -6.000  -0.1919   0.02975   0.02724  -0.1022  0.9739  0.0067  -2.8184   0.0000   0.0000   0.0000  -0.2884
  -5.750  -0.1630   0.02726   0.02458  -0.1042  0.9703  0.0070  -2.6880   0.0000   0.0000   0.0000  -0.3958
  -5.500  -0.1315   0.02443   0.02151  -0.1062  0.9665  0.0070  -2.6594   0.0000   0.0000   0.0000  -0.5657
  -5.250  -0.0992   0.02202   0.01890  -0.1081  0.9629  0.0071  -2.5818   0.0000   0.0000   0.0000  -0.8507
  -5.000  -0.0661   0.01984   0.01651  -0.1099  0.9593  0.0072  -2.4971   0.0000   0.0000   0.0000  -1.4285
  -4.750  -0.0331   0.01794   0.01441  -0.1115  0.9551  0.0074  -2.3966   0.0000   0.0000   0.0000  -3.1490
  -4.500  -0.0003   0.01630   0.01257  -0.1130  0.9497  0.0076  -2.2838   0.0000   0.0000   0.0000  -378.8861
  -4.250   0.0300   0.01490   0.01101  -0.1137  0.9452  0.0079  -2.1680   0.0000   0.0000   0.0000   4.0705
  -4.000   0.0602   0.01365   0.00961  -0.1142  0.9391  0.0082  -2.0465   0.0000   0.0000   0.0000   2.1604
  -3.750   0.0903   0.01264   0.00841  -0.1147  0.9324  0.0088  -1.8964   0.0000   0.0000   0.0000   1.5289
  -3.500   0.1204   0.01170   0.00732  -0.1151  0.9250  0.0091  -1.7700   0.0000   0.0000   0.0000   1.2121
  -3.250   0.1505   0.01085   0.00639  -0.1155  0.9203  0.0096  -1.6352   0.0000   0.0000   0.0000   1.0221
  -3.000   0.1803   0.01013   0.00560  -0.1158  0.9147  0.0102  -1.4934   0.0000   0.0000   0.0000   0.8959
  -2.750   0.2098   0.00954   0.00494  -0.1161  0.9084  0.0109  -1.3452   0.0000   0.0000   0.0000   0.8061
  -2.500   0.2391   0.00913   0.00446  -0.1163  0.9013  0.0118  -1.1850   0.0000   0.0000   0.0000   0.7386
  -0.750   0.4519   0.00642   0.00125  -0.1198  0.8152  0.0199  -0.5039   0.0000   0.0000   0.0000   0.5151
  -0.500   0.4801   0.00645   0.00110  -0.1197  0.7903  0.0167  -0.5545   0.0000   0.0000   0.0000   0.4991
  -0.250   0.5086   0.00650   0.00104  -0.1197  0.7737  0.0143  -0.6238   0.0000   0.0000   0.0000   0.4850
   0.000   0.5376   0.00649   0.00102  -0.1199  0.7602  0.0126  -0.6987   0.0000   0.0000   0.0000   0.4725
   1.000   0.6583   0.00602   0.00132  -0.1234  0.5811  0.6440  -1.0157   0.0000   0.0000   0.0000   0.4361
   1.250   0.6809   0.00703   0.00181  -0.1227  0.3926  0.7321  -1.0892   0.0000   0.0000   0.0000   0.4287
   1.500   0.7045   0.00794   0.00214  -0.1222  0.2513  0.7433  -1.1648   0.0000   0.0000   0.0000   0.4218
   1.750   0.7309   0.00837   0.00233  -0.1221  0.1933  0.7482  -1.2465   0.0000   0.0000   0.0000   0.4152
   2.000   0.7571   0.00884   0.00254  -0.1220  0.1498  0.7519  -1.3290   0.0000   0.0000   0.0000   0.4091
   2.250   0.7841   0.00911   0.00270  -0.1220  0.1215  0.7570  -1.4145   0.0000   0.0000   0.0000   0.4033
   2.500   0.8111   0.00938   0.00287  -0.1219  0.0987  0.7616  -1.5016   0.0000   0.0000   0.0000   0.3978
   2.750   0.8383   0.00959   0.00302  -0.1219  0.0876  0.7664  -1.6165   0.0000   0.0000   0.0000   0.3927
   3.000   0.8656   0.00981   0.00323  -0.1218  0.0746  0.7712  -1.7698   0.0000   0.0000   0.0000   0.3878
   3.250   0.8922   0.01014   0.00342  -0.1217  0.0563  0.7749  -1.9321   0.0000   0.0000   0.0000   0.3833
   3.500   0.9191   0.01035   0.00360  -0.1216  0.0461  0.7812  -2.1026   0.0000   0.0000   0.0000   0.3790
   3.750   0.9458   0.01062   0.00380  -0.1215  0.0401  0.7865  -2.2765   0.0000   0.0000   0.0000   0.3749
   4.000   0.9728   0.01080   0.00398  -0.1214  0.0367  0.7918  -2.4560   0.0000   0.0000   0.0000   0.3709
   4.250   0.9998   0.01101   0.00417  -0.1213  0.0335  0.7966  -2.6391   0.0000   0.0000   0.0000   0.3672
   4.750   1.0526   0.01159   0.00475  -0.1208  0.0222  0.8075  -2.9989   0.0000   0.0000   0.0000   0.3602
   5.000   1.0787   0.01196   0.00512  -0.1204  0.0181  0.8134  -3.1313   0.0000   0.0000   0.0000   0.3568
   5.250   1.1050   0.01227   0.00550  -0.1201  0.0176  0.8192  -3.2931   0.0000   0.0000   0.0000   0.3535
   5.500   1.1312   0.01260   0.00589  -0.1198  0.0174  0.8239  -3.4623   0.0000   0.0000   0.0000   0.3504
   5.750   1.1570   0.01293   0.00632  -0.1194  0.0174  0.8304  -3.6350   0.0000   0.0000   0.0000   0.3474
   6.000   1.1825   0.01330   0.00678  -0.1189  0.0175  0.8370  -3.8097   0.0000   0.0000   0.0000   0.3445
   6.250   1.2076   0.01371   0.00729  -0.1184  0.0176  0.8435  -3.9860   0.0000   0.0000   0.0000   0.3417
   6.500   1.2326   0.01418   0.00784  -0.1178  0.0178  0.8491  -4.1630   0.0000   0.0000   0.0000   0.3389
   6.750   1.2568   0.01468   0.00849  -0.1171  0.0180  0.8572  -4.3366   0.0000   0.0000   0.0000   0.3362
   7.000   1.2803   0.01525   0.00920  -0.1162  0.0182  0.8656  -4.5773   0.0000   0.0000   0.0000   0.3335
   7.250   1.3032   0.01593   0.01001  -0.1153  0.0185  0.8738  -4.9586   0.0000   0.0000   0.0000   0.3309
   7.500   1.3249   0.01669   0.01092  -0.1141  0.0187  0.8854  -5.3397   0.0000   0.0000   0.0000   0.3282
   7.750   1.3466   0.01748   0.01184  -0.1129  0.0186  0.8978  -5.7336   0.0000   0.0000   0.0000   0.3257
   8.000   1.3661   0.01842   0.01295  -0.1113  0.0188  0.9148  -6.1117   0.0000   0.0000   0.0000   0.3229
   8.250   1.3810   0.01933   0.01408  -0.1087  0.0190  1.0000  -6.4556   0.0000   0.0000   0.0000   0.3198
   8.500   1.4014   0.02070   0.01561  -0.1074  0.0192  1.0000  -6.8473   0.0000   0.0000   0.0000   0.3174
   8.750   1.4211   0.02226   0.01734  -0.1060  0.0194  1.0000  -7.2365   0.0000   0.0000   0.0000   0.3151
   9.000   1.4399   0.02399   0.01926  -0.1045  0.0195  1.0000  -7.6217   0.0000   0.0000   0.0000   0.3127
   9.250   1.4577   0.02588   0.02135  -0.1030  0.0196  1.0000  -8.0011   0.0000   0.0000   0.0000   0.3104
   9.500   1.4742   0.02789   0.02357  -0.1012  0.0196  1.0000  -8.3731   0.0000   0.0000   0.0000   0.3081
   9.750   1.4890   0.02996   0.02585  -0.0993  0.0195  1.0000  -8.7378   0.0000   0.0000   0.0000   0.3058
  10.000   1.5206   0.02695   0.02255  -0.1003  0.0166  1.0000  -9.5652   0.0000   0.0000   0.0000   0.3046
  10.250   1.5344   0.02842   0.02415  -0.0985  0.0145  1.0000  -9.9969   0.0000   0.0000   0.0000   0.3024
  10.500   1.5335   0.03238   0.02851  -0.0946  0.0134  1.0000  -10.1669   0.0000   0.0000   0.0000   0.2997
  10.750   1.5208   0.03735   0.03395  -0.0894  0.0129  1.0000  -10.1727   0.0000   0.0000   0.0000   0.2965
  11.000   1.6137   0.02618   0.02164  -0.0988  0.0112  1.0000  -12.1063   0.0000   0.0000   0.0000   0.2981
  11.250   1.6387   0.02590   0.02132  -0.0986  0.0106  1.0000  -12.7912   0.0000   0.0000   0.0000   0.2966
  11.500   1.6575   0.02645   0.02193  -0.0973  0.0102  1.0000  -13.3699   0.0000   0.0000   0.0000   0.2947
  11.750   1.6724   0.02739   0.02299  -0.0955  0.0099  1.0000  -13.8880   0.0000   0.0000   0.0000   0.2927
  12.000   1.6865   0.02820   0.02390  -0.0935  0.0096  1.0000  -14.4145   0.0000   0.0000   0.0000   0.2906
  12.250   1.7003   0.02892   0.02470  -0.0914  0.0091  1.0000  -14.9539   0.0000   0.0000   0.0000   0.2885
  12.500   1.7123   0.02967   0.02553  -0.0891  0.0086  1.0000  -15.4774   0.0000   0.0000   0.0000   0.2863
  12.750   1.7226   0.03038   0.02631  -0.0865  0.0081  1.0000  -15.9899   0.0000   0.0000   0.0000   0.2841
  13.000   1.7332   0.03114   0.02714  -0.0841  0.0076  1.0000  -16.5128   0.0000   0.0000   0.0000   0.2819
  13.250   1.7436   0.03191   0.02797  -0.0818  0.0071  1.0000  -17.0431   0.0000   0.0000   0.0000   0.2798
  13.500   1.7552   0.03265   0.02875  -0.0797  0.0065  1.0000  -17.6003   0.0000   0.0000   0.0000   0.2779
  13.750   1.7675   0.03335   0.02948  -0.0779  0.0058  1.0000  -18.1826   0.0000   0.0000   0.0000   0.2760
  14.250   1.7845   0.03555   0.03175  -0.0738  0.0045  1.0000  -19.2451   0.0000   0.0000   0.0000   0.2723
  14.500   1.7889   0.03709   0.03334  -0.0716  0.0038  1.0000  -19.7099   0.0000   0.0000   0.0000   0.2705
  14.750   1.7906   0.03897   0.03524  -0.0693  0.0030  1.0000  -20.1337   0.0000   0.0000   0.0000   0.2687
  15.000   1.7883   0.04129   0.03762  -0.0670  0.0024  1.0000  -20.4831   0.0000   0.0000   0.0000   0.2670
  15.250   1.7850   0.04380   0.04025  -0.0649  0.0021  1.0000  -20.7991   0.0000   0.0000   0.0000   0.2654
  15.500   1.7798   0.04655   0.04314  -0.0631  0.0020  1.0000  -21.0745   0.0000   0.0000   0.0000   0.2639


