xflr5 v6.57

 Calculated polar for: KC-135 Winglet (supercritical Whitcomb)

 1 1 Reynolds number fixed          Mach number fixed         

 xtrf =   1.000 (top)        1.000 (bottom)
 Mach =   0.000     Re =     0.800 e 6     Ncrit =   9.000

  alpha     CL        CD       CDp       Cm    Top Xtr Bot Xtr   Cpmin    Chinge    XCp    
 ------- -------- --------- --------- -------- ------- ------- -------- --------- ---------
 -10.750  -0.1092   0.04883   0.04726  -0.0557  0.9831  0.0078  -1.0349   0.0000   0.0000   0.0000  -0.2537
 -10.500  -0.1007   0.04615   0.04459  -0.0580  0.9818  0.0097  -1.0222   0.0000   0.0000   0.0000  -0.3190
  -9.750  -0.0751   0.03944   0.03785  -0.0652  0.9788  0.0125  -1.0147   0.0000   0.0000   0.0000  -0.6105
  -9.500  -0.0680   0.03673   0.03514  -0.0675  0.9778  0.0126  -1.0037   0.0000   0.0000   0.0000  -0.7339
  -9.250  -0.0617   0.03403   0.03244  -0.0698  0.9769  0.0126  -0.9938   0.0000   0.0000   0.0000  -0.8728
  -9.000  -0.0562   0.03135   0.02976  -0.0720  0.9757  0.0126  -1.0131   0.0000   0.0000   0.0000  -1.0214
  -8.500  -0.0540   0.02660   0.02501  -0.0747  0.9705  0.0127  -1.0853   0.0000   0.0000   0.0000  -1.1246
  -8.250  -0.0552   0.02418   0.02260  -0.0761  0.9678  0.0127  -1.1311   0.0000   0.0000   0.0000  -1.1212
  -8.000  -0.0589   0.02172   0.02014  -0.0774  0.9656  0.0127  -1.1860   0.0000   0.0000   0.0000  -1.0586
  -7.750  -0.0683   0.01925   0.01767  -0.0783  0.9643  0.0127  -1.2556   0.0000   0.0000   0.0000  -0.8920
  -7.500  -0.0831   0.01656   0.01498  -0.0796  0.9634  0.0127  -1.3522   0.0000   0.0000   0.0000  -0.7050
  -7.250  -0.1013   0.01386   0.01225  -0.0816  0.9611  0.0126  -1.4597   0.0000   0.0000   0.0000  -0.5538
  -7.000  -0.1193   0.01157   0.00990  -0.0834  0.9562  0.0126  -1.5477   0.0000   0.0000   0.0000  -0.4472
  -6.750  -0.3169   0.05274   0.05075  -0.0743  0.9837  0.0121  -2.3319   0.0000   0.0000   0.0000   0.0121
  -6.500  -0.2829   0.04899   0.04686  -0.0799  0.9816  0.0124  -2.2092   0.0000   0.0000   0.0000  -0.0364
  -6.250  -0.2497   0.04468   0.04238  -0.0855  0.9798  0.0125  -2.1246   0.0000   0.0000   0.0000  -0.0968
  -6.000  -0.2155   0.04072   0.03823  -0.0906  0.9783  0.0126  -2.1035   0.0000   0.0000   0.0000  -0.1749
  -5.750  -0.1807   0.03696   0.03423  -0.0951  0.9770  0.0126  -2.0772   0.0000   0.0000   0.0000  -0.2821
  -5.500  -0.1449   0.03364   0.03068  -0.0993  0.9754  0.0127  -2.0366   0.0000   0.0000   0.0000  -0.4419
  -5.250  -0.1140   0.03070   0.02753  -0.1017  0.9725  0.0127  -1.9939   0.0000   0.0000   0.0000  -0.6510
  -5.000  -0.0774   0.02283   0.01912  -0.1075  0.9702  0.0138  -2.2651   0.0000   0.0000   0.0000  -1.1506
  -4.750  -0.0446   0.02033   0.01646  -0.1100  0.9675  0.0149  -2.1102   0.0000   0.0000   0.0000  -2.2380
  -4.500  -0.0121   0.01884   0.01486  -0.1120  0.9645  0.0161  -1.9025   0.0000   0.0000   0.0000  -9.0795
  -4.250   0.0209   0.01748   0.01337  -0.1137  0.9614  0.0178  -1.7263   0.0000   0.0000   0.0000   5.7274
  -4.000   0.0546   0.01623   0.01197  -0.1151  0.9582  0.0203  -1.5806   0.0000   0.0000   0.0000   2.3742
  -3.750   0.0868   0.01697   0.01257  -0.1154  0.9542  0.0248  -1.3822   0.0000   0.0000   0.0000   1.5883
  -3.500   0.1201   0.01626   0.01166  -0.1164  0.9494  0.0252  -1.2657   0.0000   0.0000   0.0000   1.2251
  -3.250   0.1516   0.01259   0.00787  -0.1181  0.9447  0.0293  -1.2214   0.0000   0.0000   0.0000   1.0337
  -3.000   0.1805   0.01197   0.00721  -0.1184  0.9384  0.0342  -1.0673   0.0000   0.0000   0.0000   0.9095
  -2.000   0.2500   0.00000  -0.00396  -0.0942  0.8274  0.1130  -0.3038   0.0000   0.0000   0.0000   0.6257
  -1.500   0.3640   0.00781   0.00267  -0.1201  0.9029  0.0260  -0.5710   0.0000   0.0000   0.0000   0.5808
  -1.250   0.3956   0.00731   0.00205  -0.1207  0.8909  0.0221  -0.5102   0.0000   0.0000   0.0000   0.5555
  -1.000   0.4241   0.00713   0.00169  -0.1204  0.8734  0.0191  -0.4533   0.0000   0.0000   0.0000   0.5341
  -0.750   0.4529   0.00703   0.00150  -0.1203  0.8596  0.0168  -0.5033   0.0000   0.0000   0.0000   0.5158
  -0.500   0.4813   0.00701   0.00137  -0.1203  0.8470  0.0150  -0.5542   0.0000   0.0000   0.0000   0.4998
   0.250   0.5653   0.00707   0.00119  -0.1199  0.7911  0.0126  -0.7700   0.0000   0.0000   0.0000   0.4615
   0.750   0.6332   0.00583   0.00140  -0.1239  0.7573  0.6463  -0.9347   0.0000   0.0000   0.0000   0.4445
   1.000   0.6603   0.00589   0.00164  -0.1235  0.7320  0.7309  -1.0141   0.0000   0.0000   0.0000   0.4358
   1.250   0.6855   0.00613   0.00186  -0.1227  0.6944  0.7665  -1.0921   0.0000   0.0000   0.0000   0.4275
   1.750   0.7299   0.00808   0.00239  -0.1210  0.3711  0.7738  -1.2411   0.0000   0.0000   0.0000   0.4139
   2.000   0.7536   0.00894   0.00270  -0.1206  0.2495  0.7781  -1.3189   0.0000   0.0000   0.0000   0.4079
   2.250   0.7792   0.00940   0.00291  -0.1204  0.1905  0.7828  -1.4014   0.0000   0.0000   0.0000   0.4022
   2.500   0.8047   0.00990   0.00316  -0.1201  0.1486  0.7874  -1.4849   0.0000   0.0000   0.0000   0.3968
   2.750   0.8312   0.01023   0.00337  -0.1200  0.1204  0.7925  -1.5886   0.0000   0.0000   0.0000   0.3917
   3.000   0.8579   0.01055   0.00358  -0.1199  0.0990  0.7974  -1.7466   0.0000   0.0000   0.0000   0.3868
   3.250   0.8848   0.01079   0.00382  -0.1198  0.0876  0.8020  -1.8975   0.0000   0.0000   0.0000   0.3823
   3.500   0.9114   0.01102   0.00401  -0.1196  0.0756  0.8074  -2.0641   0.0000   0.0000   0.0000   0.3779
   3.750   0.9384   0.01119   0.00420  -0.1195  0.0724  0.8128  -2.2379   0.0000   0.0000   0.0000   0.3738
   4.000   0.9652   0.01141   0.00441  -0.1194  0.0663  0.8182  -2.4151   0.0000   0.0000   0.0000   0.3698
   4.250   0.9917   0.01172   0.00465  -0.1192  0.0568  0.8232  -2.5944   0.0000   0.0000   0.0000   0.3661
   4.500   1.0182   0.01194   0.00487  -0.1190  0.0489  0.8290  -2.7765   0.0000   0.0000   0.0000   0.3626
   4.750   1.0445   0.01217   0.00520  -0.1188  0.0462  0.8352  -2.9794   0.0000   0.0000   0.0000   0.3591
   5.000   1.0697   0.01257   0.00552  -0.1183  0.0362  0.8414  -3.1492   0.0000   0.0000   0.0000   0.3558
   5.250   1.0946   0.01310   0.00597  -0.1178  0.0236  0.8474  -3.2885   0.0000   0.0000   0.0000   0.3525
   5.500   1.1201   0.01347   0.00642  -0.1173  0.0222  0.8542  -3.4445   0.0000   0.0000   0.0000   0.3493
   5.750   1.1449   0.01385   0.00690  -0.1167  0.0216  0.8617  -3.6042   0.0000   0.0000   0.0000   0.3462
   6.000   1.1696   0.01429   0.00744  -0.1161  0.0213  0.8696  -3.7655   0.0000   0.0000   0.0000   0.3432
   6.250   1.1939   0.01478   0.00805  -0.1154  0.0211  0.8776  -3.9254   0.0000   0.0000   0.0000   0.3403
   6.500   1.2169   0.01533   0.00873  -0.1144  0.0211  0.8879  -4.0798   0.0000   0.0000   0.0000   0.3374
   6.750   1.2396   0.01600   0.00953  -0.1133  0.0211  0.8987  -4.2312   0.0000   0.0000   0.0000   0.3345
   7.000   1.2602   0.01670   0.01044  -0.1119  0.0212  0.9131  -4.3839   0.0000   0.0000   0.0000   0.3316
   7.250   1.2778   0.01747   0.01138  -0.1097  0.0213  0.9377  -4.7089   0.0000   0.0000   0.0000   0.3284
   7.500   1.2967   0.01843   0.01250  -0.1079  0.0215  1.0000  -5.0484   0.0000   0.0000   0.0000   0.3254
   7.750   1.3184   0.01961   0.01382  -0.1069  0.0216  1.0000  -5.4187   0.0000   0.0000   0.0000   0.3230
   8.000   1.3400   0.02081   0.01515  -0.1059  0.0215  1.0000  -5.8012   0.0000   0.0000   0.0000   0.3206
   8.250   1.3606   0.02233   0.01683  -0.1047  0.0216  1.0000  -6.1719   0.0000   0.0000   0.0000   0.3181
   8.500   1.3805   0.02405   0.01874  -0.1034  0.0218  1.0000  -6.5397   0.0000   0.0000   0.0000   0.3158
   8.750   1.3995   0.02598   0.02088  -0.1020  0.0219  1.0000  -6.9007   0.0000   0.0000   0.0000   0.3134
   9.000   1.4170   0.02812   0.02325  -0.1004  0.0220  1.0000  -7.2513   0.0000   0.0000   0.0000   0.3111
   9.250   1.4328   0.03044   0.02580  -0.0986  0.0221  1.0000  -7.5881   0.0000   0.0000   0.0000   0.3087
   9.500   1.4463   0.03292   0.02854  -0.0966  0.0221  1.0000  -7.9057   0.0000   0.0000   0.0000   0.3064
   9.750   1.4572   0.03555   0.03143  -0.0942  0.0220  1.0000  -8.2002   0.0000   0.0000   0.0000   0.3040
  10.000   1.4650   0.03829   0.03445  -0.0916  0.0218  1.0000  -8.4680   0.0000   0.0000   0.0000   0.3015
  10.250   1.4695   0.04113   0.03755  -0.0886  0.0216  1.0000  -8.7052   0.0000   0.0000   0.0000   0.2990
  10.500   1.4673   0.04455   0.04130  -0.0849  0.0215  1.0000  -8.8680   0.0000   0.0000   0.0000   0.2963
  10.750   1.4612   0.04780   0.04482  -0.0809  0.0213  1.0000  -8.9932   0.0000   0.0000   0.0000   0.2935
  11.000   1.4471   0.05087   0.04812  -0.0759  0.0211  1.0000  -9.0440   0.0000   0.0000   0.0000   0.2903
  11.250   1.4273   0.05408   0.05153  -0.0707  0.0210  1.0000  -9.0358   0.0000   0.0000   0.0000   0.2871
  11.500   1.4048   0.05791   0.05558  -0.0665  0.0208  1.0000  -8.9834   0.0000   0.0000   0.0000   0.2846
  11.750   1.3797   0.06255   0.06042  -0.0637  0.0207  1.0000  -8.8828   0.0000   0.0000   0.0000   0.2830
  12.000   1.3516   0.06805   0.06613  -0.0623  0.0207  1.0000  -8.7314   0.0000   0.0000   0.0000   0.2826
  12.250   1.3214   0.07474   0.07301  -0.0630  0.0206  1.0000  -8.5267   0.0000   0.0000   0.0000   0.2838
  12.500   1.2922   0.08224   0.08063  -0.0659  0.0204  1.0000  -8.3037   0.0000   0.0000   0.0000   0.2867
  12.750   1.2482   0.09495   0.09355  -0.0741  0.0208  1.0000  -7.7857   0.0000   0.0000   0.0000   0.2947
  13.000   1.0906   0.15069   0.14936  -0.1090  0.0229  1.0000  -4.4549   0.0000   0.0000   0.0000   0.3366
  13.250   1.0766   0.16041   0.15906  -0.1138  0.0227  1.0000  -4.1581   0.0000   0.0000   0.0000   0.3423
  13.500   1.0665   0.16940   0.16803  -0.1182  0.0223  1.0000  -3.9018   0.0000   0.0000   0.0000   0.3472
  13.750   1.0588   0.17785   0.17647  -0.1222  0.0223  1.0000  -3.6713   0.0000   0.0000   0.0000   0.3517
  14.000   1.0512   0.18576   0.18437  -0.1257  0.0235  1.0000  -3.4683   0.0000   0.0000   0.0000   0.3556
  14.250   1.0391   0.19522   0.19382  -0.1289  0.0248  1.0000  -3.1852   0.0000   0.0000   0.0000   0.3600
  14.500   1.0419   0.20059   0.19919  -0.1315  0.0247  1.0000  -3.1729   0.0000   0.0000   0.0000   0.3619
  14.750   1.0451   0.20590   0.20449  -0.1341  0.0247  1.0000  -3.1652   0.0000   0.0000   0.0000   0.3636
  15.000   1.0490   0.21102   0.20962  -0.1366  0.0246  1.0000  -3.1649   0.0000   0.0000   0.0000   0.3652
  15.250   1.0537   0.21594   0.21455  -0.1391  0.0245  1.0000  -3.1679   0.0000   0.0000   0.0000   0.3667


