xflr5 v6.57

 Calculated polar for: KC-135 Winglet (supercritical Whitcomb)

 1 1 Reynolds number fixed          Mach number fixed         

 xtrf =   1.000 (top)        1.000 (bottom)
 Mach =   0.000     Re =     0.250 e 6     Ncrit =   9.000

  alpha     CL        CD       CDp       Cm    Top Xtr Bot Xtr   Cpmin    Chinge    XCp    
 ------- -------- --------- --------- -------- ------- ------- -------- --------- ---------
 -10.750  -0.2264   0.07087   0.06837  -0.0251  0.9993  0.0246  -0.9157   0.0000   0.0000   0.0000   0.1421
 -10.500  -0.2212   0.06816   0.06566  -0.0278  0.9976  0.0248  -0.9704   0.0000   0.0000   0.0000   0.1272
 -10.250  -0.2150   0.06524   0.06274  -0.0303  0.9956  0.0250  -1.0165   0.0000   0.0000   0.0000   0.1120
 -10.000  -0.2093   0.06219   0.05970  -0.0328  0.9932  0.0251  -1.0704   0.0000   0.0000   0.0000   0.0963
  -9.750  -0.2043   0.05908   0.05659  -0.0353  0.9907  0.0252  -1.1305   0.0000   0.0000   0.0000   0.0801
  -9.500  -0.1867   0.05275   0.05030  -0.0361  0.9871  0.0275  -1.0347   0.0000   0.0000   0.0000   0.0600
  -9.250  -0.1732   0.04996   0.04752  -0.0378  0.9842  0.0302  -0.9284   0.0000   0.0000   0.0000   0.0354
  -9.000  -0.1652   0.04706   0.04457  -0.0403  0.9820  0.0323  -0.8907   0.0000   0.0000   0.0000   0.0098
  -8.750  -0.1600   0.04414   0.04166  -0.0431  0.9801  0.0346  -0.8972   0.0000   0.0000   0.0000  -0.0155
  -8.500  -0.1576   0.04125   0.03876  -0.0461  0.9786  0.0358  -0.9303   0.0000   0.0000   0.0000  -0.0386
  -8.250  -0.1581   0.03844   0.03595  -0.0492  0.9773  0.0366  -0.9854   0.0000   0.0000   0.0000  -0.0577
  -8.000  -0.1612   0.03563   0.03315  -0.0523  0.9763  0.0370  -1.0512   0.0000   0.0000   0.0000  -0.0711
  -7.750  -0.1671   0.03270   0.03022  -0.0551  0.9756  0.0372  -1.1207   0.0000   0.0000   0.0000  -0.0769
  -7.500  -0.1781   0.02965   0.02722  -0.0574  0.9751  0.0372  -1.2122   0.0000   0.0000   0.0000  -0.0698
  -7.000  -0.4378   0.07373   0.07071  -0.0411  1.0000  0.0250  -2.2074   0.0000   0.0000   0.0000   0.1536
  -6.750  -0.4347   0.07008   0.06697  -0.0430  1.0000  0.0251  -2.2896   0.0000   0.0000   0.0000   0.1486
  -6.500  -0.4280   0.06643   0.06318  -0.0448  1.0000  0.0252  -2.3413   0.0000   0.0000   0.0000   0.1428
  -6.250  -0.2355   0.01573   0.01289  -0.0662  0.9560  0.0374  -1.5370   0.0000   0.0000   0.0000  -0.0304
  -6.000  -0.2207   0.01261   0.00949  -0.0697  0.9534  0.0377  -1.5260   0.0000   0.0000   0.0000  -0.0649
  -5.750  -0.3759   0.05082   0.04752  -0.0559  0.9950  0.0319  -1.9816   0.0000   0.0000   0.0000   0.0990
  -5.500  -0.3371   0.04618   0.04259  -0.0624  0.9920  0.0346  -1.8888   0.0000   0.0000   0.0000   0.0624
  -5.250  -0.2852   0.04488   0.04057  -0.0685  0.9886  0.0376  -1.8827   0.0000   0.0000   0.0000   0.0071
  -5.000  -0.2541   0.03742   0.03300  -0.0741  0.9869  0.0395  -1.8501   0.0000   0.0000   0.0000  -0.0449
  -4.750  -0.2207   0.03473   0.03027  -0.0775  0.9847  0.0419  -1.6926   0.0000   0.0000   0.0000  -0.1047
  -4.500  -0.1825   0.03340   0.02874  -0.0804  0.9825  0.0466  -1.5704   0.0000   0.0000   0.0000  -0.1943
  -4.250  -0.1408   0.03545   0.03049  -0.0818  0.9799  0.0502  -1.4201   0.0000   0.0000   0.0000  -0.3362
  -4.000  -0.1025   0.02704   0.02187  -0.0891  0.9799  0.0587  -1.3887   0.0000   0.0000   0.0000  -0.6261
  -3.750  -0.0623   0.02548   0.02013  -0.0924  0.9784  0.0676  -1.2633   0.0000   0.0000   0.0000  -1.2429
  -3.500  -0.0210   0.02317   0.01748  -0.0964  0.9774  0.0835  -1.1423   0.0000   0.0000   0.0000  -4.3714
  -3.250   0.0180   0.02156   0.01580  -0.0999  0.9764  0.1084  -1.0013   0.0000   0.0000   0.0000   5.8494
  -2.250   0.1690   0.01601   0.00912  -0.1028  0.9671  0.0337  -1.0315   0.0000   0.0000   0.0000   0.8608
  -2.000   0.2079   0.01496   0.00797  -0.1046  0.9646  0.0284  -0.9947   0.0000   0.0000   0.0000   0.7551
  -1.750   0.2455   0.01456   0.00754  -0.1065  0.9613  0.0258  -0.8849   0.0000   0.0000   0.0000   0.6852
  -1.500   0.2861   0.01387   0.00684  -0.1093  0.9593  0.0246  -0.7750   0.0000   0.0000   0.0000   0.6332
  -1.250   0.3274   0.01332   0.00621  -0.1123  0.9574  0.0239  -0.6642   0.0000   0.0000   0.0000   0.5939
  -1.000   0.3671   0.01303   0.00580  -0.1149  0.9554  0.0236  -0.5444   0.0000   0.0000   0.0000   0.5634
  -0.750   0.4067   0.01285   0.00553  -0.1174  0.9536  0.0241  -0.4493   0.0000   0.0000   0.0000   0.5388
  -0.250   0.4992   0.01095   0.00568  -0.1261  0.9512  0.7228  -0.5887   0.0000   0.0000   0.0000   0.5024
   0.000   0.5294   0.01070   0.00546  -0.1259  0.9397  0.7398  -0.6609   0.0000   0.0000   0.0000   0.4873
   0.250   0.5696   0.01014   0.00489  -0.1273  0.9292  0.7541  -0.7526   0.0000   0.0000   0.0000   0.4729
   0.500   0.5943   0.00989   0.00480  -0.1252  0.9142  0.7869  -0.8193   0.0000   0.0000   0.0000   0.4598
   0.750   0.5976   0.00981   0.00496  -0.1169  0.9008  0.8595  -0.8654   0.0000   0.0000   0.0000   0.4446
   1.000   0.6206   0.00969   0.00488  -0.1153  0.8861  0.8683  -0.9360   0.0000   0.0000   0.0000   0.4346
   1.250   0.6504   0.00956   0.00473  -0.1153  0.8761  0.8733  -1.0179   0.0000   0.0000   0.0000   0.4259
   1.500   0.6753   0.00946   0.00465  -0.1144  0.8614  0.8783  -1.0940   0.0000   0.0000   0.0000   0.4178
   1.750   0.7002   0.00930   0.00448  -0.1132  0.8451  0.8839  -1.1719   0.0000   0.0000   0.0000   0.4099
   2.000   0.7250   0.00918   0.00433  -0.1120  0.8220  0.8901  -1.2509   0.0000   0.0000   0.0000   0.4025
   2.250   0.7505   0.00912   0.00423  -0.1110  0.7934  0.8970  -1.3321   0.0000   0.0000   0.0000   0.3957
   2.500   0.7740   0.00908   0.00414  -0.1097  0.7626  0.9047  -1.4110   0.0000   0.0000   0.0000   0.3892
   2.750   0.7959   0.00909   0.00406  -0.1079  0.7201  0.9133  -1.4883   0.0000   0.0000   0.0000   0.3829
   3.000   0.8174   0.00939   0.00399  -0.1061  0.6283  0.9216  -1.5964   0.0000   0.0000   0.0000   0.3770
   3.250   0.8295   0.01045   0.00418  -0.1029  0.4570  0.9317  -1.7107   0.0000   0.0000   0.0000   0.3710
   3.750   0.8586   0.01263   0.00511  -0.0987  0.1959  0.9670  -1.9350   0.0000   0.0000   0.0000   0.3614
   4.000   0.8845   0.01352   0.00561  -0.0990  0.1430  1.0000  -2.0943   0.0000   0.0000   0.0000   0.3582
   4.250   0.9138   0.01418   0.00612  -0.0999  0.1184  1.0000  -2.2680   0.0000   0.0000   0.0000   0.3553
   4.500   0.9425   0.01486   0.00668  -0.1005  0.1033  1.0000  -2.4420   0.0000   0.0000   0.0000   0.3524
   4.750   0.9714   0.01540   0.00726  -0.1011  0.0955  1.0000  -2.6195   0.0000   0.0000   0.0000   0.3496
   5.000   0.9996   0.01596   0.00794  -0.1015  0.0875  1.0000  -2.8119   0.0000   0.0000   0.0000   0.3468
   5.250   1.0247   0.01696   0.00892  -0.1014  0.0776  1.0000  -2.9989   0.0000   0.0000   0.0000   0.3439
   5.500   1.0514   0.01761   0.00966  -0.1014  0.0727  1.0000  -3.1756   0.0000   0.0000   0.0000   0.3412
   5.750   1.0791   0.01802   0.01017  -0.1016  0.0663  1.0000  -3.3502   0.0000   0.0000   0.0000   0.3386
   6.000   1.1024   0.01914   0.01125  -0.1009  0.0518  1.0000  -3.4628   0.0000   0.0000   0.0000   0.3357
   6.250   1.1271   0.01999   0.01215  -0.1004  0.0432  1.0000  -3.5572   0.0000   0.0000   0.0000   0.3330
   6.500   1.1497   0.02116   0.01329  -0.0997  0.0394  1.0000  -3.6706   0.0000   0.0000   0.0000   0.3303
   6.750   1.1699   0.02353   0.01581  -0.0983  0.0373  1.0000  -3.7237   0.0000   0.0000   0.0000   0.3274
   7.000   1.1937   0.02517   0.01763  -0.0976  0.0368  1.0000  -3.8231   0.0000   0.0000   0.0000   0.3248
   7.250   1.2173   0.02717   0.01993  -0.0968  0.0365  1.0000  -3.9509   0.0000   0.0000   0.0000   0.3223
   7.500   1.2400   0.02957   0.02260  -0.0959  0.0364  1.0000  -4.2353   0.0000   0.0000   0.0000   0.3198
   7.750   1.2605   0.03258   0.02593  -0.0948  0.0365  1.0000  -4.5022   0.0000   0.0000   0.0000   0.3174
   8.000   1.2776   0.03623   0.02995  -0.0932  0.0368  1.0000  -4.7332   0.0000   0.0000   0.0000   0.3149
   8.250   1.2897   0.04070   0.03482  -0.0912  0.0372  1.0000  -4.9130   0.0000   0.0000   0.0000   0.3124
   8.500   1.2992   0.04485   0.03935  -0.0890  0.0373  1.0000  -5.0897   0.0000   0.0000   0.0000   0.3100
   8.750   1.3073   0.04836   0.04320  -0.0867  0.0373  1.0000  -5.2776   0.0000   0.0000   0.0000   0.3075
   9.250   1.3220   0.05497   0.05038  -0.0822  0.0380  1.0000  -5.6605   0.0000   0.0000   0.0000   0.3028
   9.500   1.3270   0.05752   0.05322  -0.0794  0.0386  1.0000  -5.8400   0.0000   0.0000   0.0000   0.3003
   9.750   1.2409   0.07188   0.06871  -0.0694  0.0440  1.0000  -4.7902   0.0000   0.0000   0.0000   0.2966
  10.000   1.2048   0.07752   0.07456  -0.0658  0.0450  1.0000  -4.5779   0.0000   0.0000   0.0000   0.2950
  10.250   1.1694   0.08386   0.08108  -0.0648  0.0458  1.0000  -4.3667   0.0000   0.0000   0.0000   0.2956
  10.500   1.1326   0.09171   0.08908  -0.0669  0.0466  1.0000  -4.1116   0.0000   0.0000   0.0000   0.2990
  10.750   1.0896   0.10318   0.10066  -0.0735  0.0477  1.0000  -3.7215   0.0000   0.0000   0.0000   0.3072
  11.000   1.0237   0.13542   0.13284  -0.0990  0.0626  1.0000  -2.3868   0.0000   0.0000   0.0000   0.3370
  11.250   1.0196   0.14115   0.13855  -0.1017  0.0609  1.0000  -2.3840   0.0000   0.0000   0.0000   0.3398
  11.500   1.0175   0.14629   0.14369  -0.1040  0.0594  1.0000  -2.4096   0.0000   0.0000   0.0000   0.3419
  11.750   1.0162   0.15132   0.14871  -0.1060  0.0582  1.0000  -2.4397   0.0000   0.0000   0.0000   0.3438
  12.000   1.0163   0.15603   0.15343  -0.1078  0.0572  1.0000  -2.4884   0.0000   0.0000   0.0000   0.3453
  12.250   1.0182   0.16038   0.15778  -0.1093  0.0561  1.0000  -2.5611   0.0000   0.0000   0.0000   0.3462
  12.500   1.0216   0.16434   0.16175  -0.1103  0.0551  1.0000  -2.6616   0.0000   0.0000   0.0000   0.3465
  12.750   1.0262   0.16803   0.16545  -0.1109  0.0541  1.0000  -2.7853   0.0000   0.0000   0.0000   0.3463
  13.000   1.0326   0.17084   0.16837  -0.1095  0.0520  1.0000  -2.9874   0.0000   0.0000   0.0000   0.3438
  13.250   1.0139   0.18338   0.18079  -0.1134  0.0502  1.0000  -2.7421   0.0000   0.0000   0.0000   0.3495
  13.500   1.0118   0.19052   0.18790  -0.1168  0.0499  1.0000  -2.6654   0.0000   0.0000   0.0000   0.3529
  14.000   0.6071   0.11973   0.11740  -0.0677  0.0585  1.0000  -1.0789   0.0000   0.0000   0.0000   0.3528
  14.250   0.6157   0.12256   0.12024  -0.0685  0.0562  1.0000  -1.1266   0.0000   0.0000   0.0000   0.3523
  14.500   0.6243   0.12570   0.12339  -0.0694  0.0548  1.0000  -1.2043   0.0000   0.0000   0.0000   0.3518
  14.750   0.6351   0.12896   0.12667  -0.0699  0.0535  1.0000  -1.3442   0.0000   0.0000   0.0000   0.3503
  15.000   0.6483   0.13277   0.13050  -0.0700  0.0521  1.0000  -1.5186   0.0000   0.0000   0.0000   0.3478
  15.250   0.6485   0.14437   0.14206  -0.0735  0.0499  1.0000  -1.4129   0.0000   0.0000   0.0000   0.3530
  15.500   0.6523   0.14810   0.14579  -0.0754  0.0498  1.0000  -1.4334   0.0000   0.0000   0.0000   0.3550


