xflr5 v6.57

 Calculated polar for: KC-135 Winglet (supercritical Whitcomb)

 1 1 Reynolds number fixed          Mach number fixed         

 xtrf =   1.000 (top)        1.000 (bottom)
 Mach =   0.000     Re =     0.500 e 6     Ncrit =   9.000

  alpha     CL        CD       CDp       Cm    Top Xtr Bot Xtr   Cpmin    Chinge    XCp    
 ------- -------- --------- --------- -------- ------- ------- -------- --------- ---------
 -11.000  -0.1480   0.05940   0.05748  -0.0447  0.9875  0.0123  -0.9390   0.0000   0.0000   0.0000  -0.0475
 -10.250  -0.1319   0.04764   0.04575  -0.0526  0.9824  0.0142  -1.2040   0.0000   0.0000   0.0000  -0.1445
 -10.000  -0.1173   0.04513   0.04323  -0.0542  0.9809  0.0155  -1.0540   0.0000   0.0000   0.0000  -0.2063
  -9.750  -0.1075   0.04247   0.04058  -0.0564  0.9796  0.0165  -0.9901   0.0000   0.0000   0.0000  -0.2683
  -9.500  -0.0997   0.03968   0.03776  -0.0588  0.9785  0.0169  -0.9565   0.0000   0.0000   0.0000  -0.3333
  -9.250  -0.0922   0.03697   0.03505  -0.0611  0.9774  0.0178  -0.9253   0.0000   0.0000   0.0000  -0.4061
  -9.000  -0.0857   0.03431   0.03239  -0.0635  0.9765  0.0193  -0.8968   0.0000   0.0000   0.0000  -0.4839
  -8.750  -0.0809   0.03164   0.02972  -0.0659  0.9756  0.0211  -0.8871   0.0000   0.0000   0.0000  -0.5580
  -8.500  -0.0803   0.02923   0.02731  -0.0676  0.9736  0.0225  -0.9247   0.0000   0.0000   0.0000  -0.5850
  -8.250  -0.0837   0.02706   0.02515  -0.0686  0.9698  0.0232  -0.9754   0.0000   0.0000   0.0000  -0.5631
  -8.000  -0.0876   0.02463   0.02273  -0.0702  0.9677  0.0237  -1.0348   0.0000   0.0000   0.0000  -0.5457
  -7.750  -0.0949   0.02207   0.02018  -0.0715  0.9665  0.0239  -1.0955   0.0000   0.0000   0.0000  -0.4990
  -7.500  -0.1080   0.01934   0.01744  -0.0721  0.9661  0.0237  -1.1586   0.0000   0.0000   0.0000  -0.4149
  -7.250  -0.1209   0.01632   0.01444  -0.0738  0.9648  0.0234  -1.2299   0.0000   0.0000   0.0000  -0.3583
  -7.000  -0.1386   0.01312   0.01122  -0.0768  0.9622  0.0225  -1.3168   0.0000   0.0000   0.0000  -0.3020
  -6.750  -0.1530   0.01005   0.00808  -0.0815  0.9583  0.0217  -1.4101   0.0000   0.0000   0.0000  -0.2807
  -6.500  -0.1489   0.00710   0.00498  -0.0857  0.9554  0.0228  -1.4718   0.0000   0.0000   0.0000  -0.3238
  -6.250  -0.1319   0.00519   0.00286  -0.0886  0.9526  0.0244  -1.5069   0.0000   0.0000   0.0000  -0.4201
  -6.000  -0.1146   0.00382   0.00131  -0.0898  0.9474  0.0248  -1.4846   0.0000   0.0000   0.0000  -0.5316
  -5.750  -0.1000   0.00266  -0.00002  -0.0901  0.9399  0.0250  -1.4617   0.0000   0.0000   0.0000  -0.6483
  -5.500  -0.0799   0.00163  -0.00124  -0.0910  0.9339  0.0251  -1.4241   0.0000   0.0000   0.0000  -0.8856
  -5.250  -0.0576   0.00092  -0.00216  -0.0917  0.9286  0.0252  -1.3761   0.0000   0.0000   0.0000  -1.3362
  -5.000  -0.1191   0.03187   0.02800  -0.0980  0.9756  0.0251  -1.7789   0.0000   0.0000   0.0000  -0.5804
  -4.750  -0.0843   0.02956   0.02541  -0.1006  0.9734  0.0252  -1.7130   0.0000   0.0000   0.0000  -0.9529
  -4.500  -0.0501   0.02281   0.01839  -0.1055  0.9714  0.0278  -1.7273   0.0000   0.0000   0.0000  -1.8735
  -4.250  -0.0170   0.02108   0.01657  -0.1076  0.9685  0.0300  -1.5645   0.0000   0.0000   0.0000  -6.1350
  -4.000   0.0192   0.01965   0.01496  -0.1097  0.9662  0.0338  -1.4379   0.0000   0.0000   0.0000   5.9992
  -3.500   0.0925   0.01677   0.01175  -0.1141  0.9623  0.0439  -1.1774   0.0000   0.0000   0.0000   1.4913
  -3.250   0.1270   0.01807   0.01305  -0.1148  0.9596  0.0500  -0.9898   0.0000   0.0000   0.0000   1.1592
  -3.000   0.1651   0.01409   0.00891  -0.1185  0.9582  0.0642  -0.9106   0.0000   0.0000   0.0000   0.9713
  -2.500   0.2361   0.01164   0.00647  -0.1226  0.9534  0.1105  -0.6582   0.0000   0.0000   0.0000   0.7715
  -2.000   0.3042   0.01001   0.00431  -0.1210  0.9447  0.0268  -0.8011   0.0000   0.0000   0.0000   0.6493
  -1.750   0.3369   0.00941   0.00370  -0.1220  0.9397  0.0234  -0.7185   0.0000   0.0000   0.0000   0.6132
  -1.500   0.3704   0.00889   0.00310  -0.1231  0.9352  0.0211  -0.6343   0.0000   0.0000   0.0000   0.5832
  -1.250   0.4024   0.00858   0.00270  -0.1238  0.9306  0.0193  -0.5351   0.0000   0.0000   0.0000   0.5583
  -1.000   0.4329   0.00841   0.00244  -0.1241  0.9239  0.0179  -0.4578   0.0000   0.0000   0.0000   0.5370
  -0.750   0.4592   0.00825   0.00220  -0.1233  0.9114  0.0170  -0.5060   0.0000   0.0000   0.0000   0.5187
  -0.500   0.4857   0.00812   0.00197  -0.1225  0.8964  0.0165  -0.5556   0.0000   0.0000   0.0000   0.5020
  -0.250   0.5124   0.00804   0.00184  -0.1218  0.8813  0.0172  -0.6195   0.0000   0.0000   0.0000   0.4875
   0.000   0.5515   0.00654   0.00194  -0.1255  0.8664  0.6375  -0.7058   0.0000   0.0000   0.0000   0.4770
   0.250   0.5780   0.00655   0.00194  -0.1248  0.8477  0.6663  -0.7762   0.0000   0.0000   0.0000   0.4652
   0.500   0.6051   0.00656   0.00196  -0.1244  0.8303  0.6877  -0.8498   0.0000   0.0000   0.0000   0.4547
   0.750   0.6321   0.00662   0.00209  -0.1240  0.8154  0.7276  -0.9264   0.0000   0.0000   0.0000   0.4450
   1.250   0.6807   0.00697   0.00258  -0.1214  0.7812  0.8002  -1.0777   0.0000   0.0000   0.0000   0.4269
   1.500   0.7074   0.00703   0.00259  -0.1210  0.7560  0.8045  -1.1583   0.0000   0.0000   0.0000   0.4194
   1.750   0.7337   0.00717   0.00262  -0.1205  0.7248  0.8086  -1.2395   0.0000   0.0000   0.0000   0.4124
   2.000   0.7585   0.00747   0.00268  -0.1198  0.6554  0.8132  -1.3199   0.0000   0.0000   0.0000   0.4058
   2.250   0.7766   0.00874   0.00300  -0.1180  0.4568  0.8180  -1.3907   0.0000   0.0000   0.0000   0.3997
   2.500   0.7973   0.00999   0.00346  -0.1172  0.2920  0.8231  -1.4652   0.0000   0.0000   0.0000   0.3945
   2.750   0.8207   0.01074   0.00377  -0.1167  0.2009  0.8286  -1.5492   0.0000   0.0000   0.0000   0.3895
   3.000   0.8449   0.01129   0.00407  -0.1162  0.1548  0.8340  -1.6972   0.0000   0.0000   0.0000   0.3846
   3.250   0.8703   0.01170   0.00440  -0.1159  0.1236  0.8394  -1.8380   0.0000   0.0000   0.0000   0.3801
   3.500   0.8963   0.01205   0.00465  -0.1157  0.1040  0.8451  -1.9998   0.0000   0.0000   0.0000   0.3757
   4.000   0.9483   0.01260   0.00514  -0.1152  0.0832  0.8570  -2.3369   0.0000   0.0000   0.0000   0.3676
   4.250   0.9736   0.01290   0.00545  -0.1147  0.0745  0.8636  -2.5072   0.0000   0.0000   0.0000   0.3637
   4.500   1.0000   0.01309   0.00569  -0.1145  0.0717  0.8705  -2.6875   0.0000   0.0000   0.0000   0.3602
   4.750   1.0257   0.01336   0.00606  -0.1141  0.0660  0.8776  -2.8826   0.0000   0.0000   0.0000   0.3567
   5.000   1.0497   0.01369   0.00639  -0.1134  0.0579  0.8859  -3.0736   0.0000   0.0000   0.0000   0.3532
   5.250   1.0742   0.01407   0.00681  -0.1128  0.0490  0.8950  -3.2433   0.0000   0.0000   0.0000   0.3499
   5.500   1.0979   0.01445   0.00712  -0.1121  0.0396  0.9048  -3.3969   0.0000   0.0000   0.0000   0.3467
   5.750   1.1198   0.01488   0.00759  -0.1108  0.0316  0.9175  -3.5245   0.0000   0.0000   0.0000   0.3433
   6.000   1.1392   0.01549   0.00823  -0.1091  0.0266  0.9355  -3.6336   0.0000   0.0000   0.0000   0.3398
   6.250   1.1569   0.01636   0.00927  -0.1069  0.0250  1.0000  -3.7218   0.0000   0.0000   0.0000   0.3362
   6.500   1.1813   0.01728   0.01030  -0.1064  0.0248  1.0000  -3.8616   0.0000   0.0000   0.0000   0.3336
   6.750   1.2045   0.01834   0.01149  -0.1057  0.0247  1.0000  -3.9944   0.0000   0.0000   0.0000   0.3309
   7.000   1.2267   0.01957   0.01290  -0.1048  0.0247  1.0000  -4.1196   0.0000   0.0000   0.0000   0.3283
   7.250   1.2482   0.02102   0.01451  -0.1037  0.0247  1.0000  -4.3730   0.0000   0.0000   0.0000   0.3257
   7.500   1.2692   0.02283   0.01650  -0.1025  0.0248  1.0000  -4.6938   0.0000   0.0000   0.0000   0.3231
   7.750   1.2897   0.02505   0.01895  -0.1014  0.0249  1.0000  -5.0078   0.0000   0.0000   0.0000   0.3206
   8.000   1.3106   0.02695   0.02105  -0.1003  0.0248  1.0000  -5.3483   0.0000   0.0000   0.0000   0.3182
   8.250   1.3302   0.02910   0.02342  -0.0991  0.0248  1.0000  -5.6798   0.0000   0.0000   0.0000   0.3159
   8.500   1.3455   0.03244   0.02708  -0.0974  0.0249  1.0000  -5.9430   0.0000   0.0000   0.0000   0.3135
  10.000   1.4043   0.04866   0.04484  -0.0838  0.0256  1.0000  -7.5042   0.0000   0.0000   0.0000   0.2990
  10.250   1.3988   0.05226   0.04873  -0.0802  0.0256  1.0000  -7.6101   0.0000   0.0000   0.0000   0.2963
  10.500   1.3867   0.05592   0.05265  -0.0759  0.0256  1.0000  -7.6550   0.0000   0.0000   0.0000   0.2935
  10.750   1.3678   0.05915   0.05609  -0.0709  0.0256  1.0000  -7.6496   0.0000   0.0000   0.0000   0.2903
  11.000   1.3469   0.06267   0.05981  -0.0667  0.0256  1.0000  -7.6214   0.0000   0.0000   0.0000   0.2877
  11.250   1.3253   0.06667   0.06400  -0.0638  0.0256  1.0000  -7.5757   0.0000   0.0000   0.0000   0.2860
  11.500   1.3031   0.07115   0.06867  -0.0622  0.0256  1.0000  -7.5132   0.0000   0.0000   0.0000   0.2852
  11.750   1.2808   0.07629   0.07399  -0.0620  0.0257  1.0000  -7.4333   0.0000   0.0000   0.0000   0.2856
  12.000   1.2584   0.08214   0.08000  -0.0634  0.0257  1.0000  -7.3319   0.0000   0.0000   0.0000   0.2871
  12.250   1.2358   0.08899   0.08701  -0.0667  0.0259  1.0000  -7.1972   0.0000   0.0000   0.0000   0.2902
  12.500   1.2118   0.09776   0.09594  -0.0726  0.0261  1.0000  -6.9843   0.0000   0.0000   0.0000   0.2958
  13.750   1.0328   0.18859   0.18680  -0.1260  0.0326  1.0000  -2.8346   0.0000   0.0000   0.0000   0.3588
  14.000   1.0354   0.19321   0.19142  -0.1284  0.0308  1.0000  -2.8635   0.0000   0.0000   0.0000   0.3606
  14.250   1.0392   0.19738   0.19559  -0.1304  0.0296  1.0000  -2.9259   0.0000   0.0000   0.0000   0.3617
  14.500   1.0440   0.20119   0.19941  -0.1322  0.0286  1.0000  -3.0163   0.0000   0.0000   0.0000   0.3624
  14.750   1.0516   0.20373   0.20197  -0.1330  0.0276  1.0000  -3.2080   0.0000   0.0000   0.0000   0.3618
  15.000   1.0614   0.20504   0.20330  -0.1327  0.0266  1.0000  -3.5055   0.0000   0.0000   0.0000   0.3598
  15.250   1.0517   0.21427   0.21250  -0.1357  0.0250  1.0000  -3.2941   0.0000   0.0000   0.0000   0.3637
  15.500   1.0560   0.21952   0.21775  -0.1385  0.0249  1.0000  -3.2686   0.0000   0.0000   0.0000   0.3655


