xflr5 v6.57

 Calculated polar for: KC-135 Winglet (supercritical Whitcomb)

 1 1 Reynolds number fixed          Mach number fixed         

 xtrf =   1.000 (top)        1.000 (bottom)
 Mach =   0.000     Re =     0.050 e 6     Ncrit =   9.000

  alpha     CL        CD       CDp       Cm    Top Xtr Bot Xtr   Cpmin    Chinge    XCp    
 ------- -------- --------- --------- -------- ------- ------- -------- --------- ---------
 -12.000  -0.4746   0.14910   0.14138  -0.0124  1.0000  0.1093  -1.2234   0.0000   0.0000   0.0000   0.2178
 -11.500  -0.4692   0.14398   0.13634  -0.0150  1.0000  0.1208  -1.2481   0.0000   0.0000   0.0000   0.2123
 -11.000  -0.4889   0.14477   0.13733  -0.0218  1.0000  0.1247  -1.3918   0.0000   0.0000   0.0000   0.2007
 -10.500  -0.4661   0.13387   0.12649  -0.0200  1.0000  0.1485  -1.3107   0.0000   0.0000   0.0000   0.2023
 -10.000  -0.4427   0.12374   0.11642  -0.0185  1.0000  0.1673  -1.2517   0.0000   0.0000   0.0000   0.2034
  -9.500  -0.4766   0.12513   0.11811  -0.0248  1.0000  0.1748  -1.4006   0.0000   0.0000   0.0000   0.1941
  -9.000  -0.4554   0.11949   0.11259  -0.0229  1.0000  0.1976  -1.3315   0.0000   0.0000   0.0000   0.1960
  -8.500  -0.4146   0.10460   0.09768  -0.0185  1.0000  0.2257  -1.1721   0.0000   0.0000   0.0000   0.2011
  -8.000  -0.4470   0.10647   0.09989  -0.0191  1.0000  0.2467  -1.2458   0.0000   0.0000   0.0000   0.2040
  -7.500  -0.4061   0.09400   0.08743  -0.0153  1.0000  0.2803  -1.0533   0.0000   0.0000   0.0000   0.2088
  -6.000  -0.4217   0.08152   0.07552  -0.0002  1.0000  0.4088  -0.9585   0.0000   0.0000   0.0000   0.2469
  -5.500  -0.3895   0.07659   0.07064   0.0085  1.0000  0.4904  -0.8795   0.0000   0.0000   0.0000   0.2690
  -5.000  -0.3657   0.07157   0.06573   0.0178  1.0000  0.5987  -0.8235   0.0000   0.0000   0.0000   0.2957
  -4.500  -0.2219   0.03490   0.03096   0.0106  1.0000  0.4690  -0.4422   0.0000   0.0000   0.0000   0.3003
  -4.000  -0.3591   0.05340   0.04768  -0.0221  1.0000  0.4071  -1.0202   0.0000   0.0000   0.0000   0.1871
  -3.500  -0.1364   0.03372   0.02385  -0.0743  1.0000  0.1017  -1.4166   0.0000   0.0000   0.0000  -0.2991
  -3.000  -0.0738   0.02937   0.01898  -0.0757  1.0000  0.0906  -1.3400   0.0000   0.0000   0.0000  -0.7828
  -2.500  -0.0163   0.02672   0.01560  -0.0748  1.0000  0.0840  -1.2506   0.0000   0.0000   0.0000  -4.3568
  -2.000   0.0352   0.02502   0.01361  -0.0726  1.0000  0.0813  -1.1580   0.0000   0.0000   0.0000   2.3233
  -1.500   0.0987   0.02367   0.01196  -0.0742  1.0000  0.0859  -1.0373   0.0000   0.0000   0.0000   1.0042
  -1.000   0.1767   0.02084   0.01147  -0.0787  1.0000  0.7008  -0.9513   0.0000   0.0000   0.0000   0.6964
  -0.500   0.1589   0.02035   0.01133  -0.0600  1.0000  0.9312  -0.9536   0.0000   0.0000   0.0000   0.6282
   0.000   0.1979   0.02074   0.01117  -0.0587  1.0000  1.0000  -0.8164   0.0000   0.0000   0.0000   0.5462
   0.500   0.2581   0.02171   0.01169  -0.0618  1.0000  1.0000  -0.5380   0.0000   0.0000   0.0000   0.4887
   1.000   0.3152   0.02285   0.01258  -0.0646  1.0000  1.0000  -0.5137   0.0000   0.0000   0.0000   0.4536
   1.500   0.3693   0.02417   0.01384  -0.0670  1.0000  1.0000  -0.6252   0.0000   0.0000   0.0000   0.4296
   2.000   0.4203   0.02571   0.01558  -0.0691  1.0000  1.0000  -0.7363   0.0000   0.0000   0.0000   0.4122
   2.500   0.4686   0.02751   0.01749  -0.0710  1.0000  1.0000  -0.8578   0.0000   0.0000   0.0000   0.3989
   3.000   0.5134   0.02966   0.01983  -0.0729  1.0000  1.0000  -0.9823   0.0000   0.0000   0.0000   0.3888
   3.500   0.6079   0.03179   0.02240  -0.0837  0.9675  1.0000  -1.1868   0.0000   0.0000   0.0000   0.3842
   4.000   0.8102   0.02691   0.01891  -0.1004  0.8486  1.0000  -1.6734   0.0000   0.0000   0.0000   0.3702
   4.500   0.8850   0.02233   0.01255  -0.0858  0.4027  1.0000  -2.0557   0.0000   0.0000   0.0000   0.3429
   5.000   0.9377   0.02712   0.01627  -0.0846  0.2610  1.0000  -2.2931   0.0000   0.0000   0.0000   0.3357
   5.500   1.0025   0.03134   0.02087  -0.0852  0.2166  1.0000  -2.5689   0.0000   0.0000   0.0000   0.3301
   6.000   1.0575   0.03751   0.02751  -0.0847  0.1868  1.0000  -2.7764   0.0000   0.0000   0.0000   0.3248
   6.500   1.1032   0.04241   0.03255  -0.0830  0.1553  1.0000  -2.9280   0.0000   0.0000   0.0000   0.3194
   7.000   1.1395   0.04848   0.03907  -0.0805  0.1297  1.0000  -3.0089   0.0000   0.0000   0.0000   0.3144
   7.500   1.1634   0.05909   0.05042  -0.0777  0.1241  1.0000  -2.9747   0.0000   0.0000   0.0000   0.3101
   8.000   1.1764   0.07027   0.06244  -0.0746  0.1248  1.0000  -2.9610   0.0000   0.0000   0.0000   0.3064
   8.500   1.1393   0.08029   0.07392  -0.0697  0.1347  1.0000  -2.7229   0.0000   0.0000   0.0000   0.3040
   9.000   1.0960   0.09288   0.08687  -0.0685  0.1434  1.0000  -2.5478   0.0000   0.0000   0.0000   0.3051
   9.500   1.0143   0.11269   0.10679  -0.0809  0.1650  1.0000  -2.1437   0.0000   0.0000   0.0000   0.3221
  10.000   1.0065   0.15466   0.14883  -0.1053  0.2993  1.0000  -1.7154   0.0000   0.0000   0.0000   0.3472
  10.500   0.9347   0.15124   0.14515  -0.1123  0.2778  1.0000  -1.5571   0.0000   0.0000   0.0000   0.3620
  11.000   0.9596   0.16089   0.15489  -0.1114  0.2595  1.0000  -1.5962   0.0000   0.0000   0.0000   0.3575
  11.500   0.9997   0.18289   0.17699  -0.1097  0.2488  1.0000  -1.6797   0.0000   0.0000   0.0000   0.3508
  12.000   0.9494   0.17814   0.17203  -0.1182  0.2342  1.0000  -1.5195   0.0000   0.0000   0.0000   0.3648
  12.500   0.9586   0.18549   0.17941  -0.1202  0.2174  1.0000  -1.5337   0.0000   0.0000   0.0000   0.3650
  13.000   1.0032   0.19982   0.19393  -0.1171  0.2045  1.0000  -1.7857   0.0000   0.0000   0.0000   0.3559
  13.500   1.0010   0.21212   0.20616  -0.1213  0.1965  1.0000  -1.8093   0.0000   0.0000   0.0000   0.3598
  14.000   0.9915   0.21064   0.20462  -0.1277  0.1832  1.0000  -1.7818   0.0000   0.0000   0.0000   0.3666
  14.500   1.0372   0.23048   0.22464  -0.1247  0.1744  1.0000  -2.1667   0.0000   0.0000   0.0000   0.3575
  15.000   1.0104   0.22618   0.22018  -0.1354  0.1673  1.0000  -1.9551   0.0000   0.0000   0.0000   0.3704
  15.500   1.0569   0.24863   0.24299  -0.1305  0.1495  1.0000  -2.3450   0.0000   0.0000   0.0000   0.3595
  16.000   1.0368   0.24245   0.23665  -0.1420  0.1448  1.0000  -2.1351   0.0000   0.0000   0.0000   0.3719


