xflr5 v6.57

 Calculated polar for: KC-135 Winglet (supercritical Whitcomb)

 1 1 Reynolds number fixed          Mach number fixed         

 xtrf =   1.000 (top)        1.000 (bottom)
 Mach =   0.000     Re =     1.200 e 6     Ncrit =   9.000

  alpha     CL        CD       CDp       Cm    Top Xtr Bot Xtr   Cpmin    Chinge    XCp    
 ------- -------- --------- --------- -------- ------- ------- -------- --------- ---------
 -12.000  -0.1279   0.06224   0.06091  -0.0498  0.9890  0.0050  -0.8668   0.0000   0.0000   0.0000  -0.1333
 -11.500  -0.1108   0.05612   0.05479  -0.0541  0.9860  0.0051  -0.9051   0.0000   0.0000   0.0000  -0.2310
 -11.000  -0.0952   0.04998   0.04866  -0.0585  0.9833  0.0051  -0.9939   0.0000   0.0000   0.0000  -0.3566
  -8.000  -0.0809   0.01824   0.01691  -0.0768  0.9528  0.0078  -1.4030   0.0000   0.0000   0.0000  -0.6949
  -7.000  -0.3199   0.04530   0.04348  -0.0837  0.9823  0.0059  -3.1004   0.0000   0.0000   0.0000  -0.0159
  -6.500  -0.2563   0.03616   0.03399  -0.0948  0.9786  0.0062  -3.0585   0.0000   0.0000   0.0000  -0.1245
  -6.000  -0.1919   0.02975   0.02724  -0.1022  0.9739  0.0067  -2.8184   0.0000   0.0000   0.0000  -0.2884
  -5.500  -0.1315   0.02443   0.02151  -0.1062  0.9666  0.0070  -2.6594   0.0000   0.0000   0.0000  -0.5657
  -5.000  -0.0661   0.01984   0.01651  -0.1099  0.9593  0.0072  -2.4971   0.0000   0.0000   0.0000  -1.4285
  -4.500  -0.0003   0.01630   0.01257  -0.1130  0.9497  0.0076  -2.2838   0.0000   0.0000   0.0000  -378.8864
  -4.000   0.0602   0.01365   0.00961  -0.1142  0.9391  0.0082  -2.0465   0.0000   0.0000   0.0000   2.1604
  -3.000   0.1803   0.01013   0.00560  -0.1158  0.9147  0.0102  -1.4934   0.0000   0.0000   0.0000   0.8959
  -2.500   0.2391   0.00913   0.00446  -0.1163  0.9013  0.0118  -1.1850   0.0000   0.0000   0.0000   0.7386
  -0.500   0.4801   0.00645   0.00110  -0.1197  0.7903  0.0167  -0.5545   0.0000   0.0000   0.0000   0.4991
   0.000   0.5376   0.00649   0.00102  -0.1199  0.7602  0.0126  -0.6987   0.0000   0.0000   0.0000   0.4725
   1.000   0.6583   0.00602   0.00132  -0.1234  0.5811  0.6440  -1.0157   0.0000   0.0000   0.0000   0.4361
   1.500   0.7045   0.00794   0.00214  -0.1222  0.2513  0.7433  -1.1648   0.0000   0.0000   0.0000   0.4218
   2.000   0.7571   0.00884   0.00254  -0.1220  0.1498  0.7519  -1.3290   0.0000   0.0000   0.0000   0.4091
   2.500   0.8111   0.00938   0.00287  -0.1219  0.0987  0.7616  -1.5016   0.0000   0.0000   0.0000   0.3978
   3.000   0.8656   0.00981   0.00323  -0.1218  0.0746  0.7712  -1.7698   0.0000   0.0000   0.0000   0.3878
   3.500   0.9191   0.01035   0.00360  -0.1216  0.0461  0.7812  -2.1026   0.0000   0.0000   0.0000   0.3790
   4.000   0.9728   0.01080   0.00398  -0.1214  0.0367  0.7918  -2.4560   0.0000   0.0000   0.0000   0.3709
   4.500   1.0258   0.01139   0.00446  -0.1210  0.0229  0.8010  -2.8207   0.0000   0.0000   0.0000   0.3637
   5.000   1.0787   0.01196   0.00512  -0.1204  0.0181  0.8134  -3.1313   0.0000   0.0000   0.0000   0.3568
   5.500   1.1312   0.01260   0.00589  -0.1198  0.0174  0.8239  -3.4623   0.0000   0.0000   0.0000   0.3504
   6.000   1.1825   0.01330   0.00678  -0.1189  0.0175  0.8370  -3.8097   0.0000   0.0000   0.0000   0.3445
   6.500   1.2326   0.01418   0.00784  -0.1178  0.0178  0.8491  -4.1630   0.0000   0.0000   0.0000   0.3389
   7.000   1.2803   0.01525   0.00920  -0.1162  0.0182  0.8656  -4.5773   0.0000   0.0000   0.0000   0.3335
   7.500   1.3249   0.01669   0.01092  -0.1141  0.0187  0.8854  -5.3397   0.0000   0.0000   0.0000   0.3282
   8.000   1.3661   0.01842   0.01295  -0.1113  0.0188  0.9148  -6.1117   0.0000   0.0000   0.0000   0.3229
   8.500   1.4014   0.02070   0.01561  -0.1074  0.0192  1.0000  -6.8473   0.0000   0.0000   0.0000   0.3174
   9.000   1.4399   0.02399   0.01926  -0.1045  0.0195  1.0000  -7.6217   0.0000   0.0000   0.0000   0.3127
   9.500   1.4742   0.02789   0.02357  -0.1012  0.0196  1.0000  -8.3731   0.0000   0.0000   0.0000   0.3081
  10.000   1.5206   0.02695   0.02255  -0.1003  0.0166  1.0000  -9.5652   0.0000   0.0000   0.0000   0.3046
  10.500   1.5335   0.03238   0.02851  -0.0946  0.0134  1.0000  -10.1669   0.0000   0.0000   0.0000   0.2997
  11.000   1.5057   0.04133   0.03828  -0.0840  0.0125  1.0000  -10.1974   0.0000   0.0000   0.0000   0.2932
  11.500   1.6575   0.02645   0.02193  -0.0973  0.0102  1.0000  -13.3699   0.0000   0.0000   0.0000   0.2947
  12.000   1.6865   0.02820   0.02390  -0.0935  0.0096  1.0000  -14.4145   0.0000   0.0000   0.0000   0.2906
  12.500   1.7123   0.02967   0.02553  -0.0891  0.0086  1.0000  -15.4774   0.0000   0.0000   0.0000   0.2863
  13.000   1.7332   0.03114   0.02714  -0.0841  0.0076  1.0000  -16.5128   0.0000   0.0000   0.0000   0.2819
  13.500   1.7552   0.03265   0.02875  -0.0797  0.0065  1.0000  -17.6003   0.0000   0.0000   0.0000   0.2779
  14.500   1.7889   0.03709   0.03334  -0.0716  0.0038  1.0000  -19.7099   0.0000   0.0000   0.0000   0.2705
  15.000   1.7883   0.04129   0.03762  -0.0670  0.0024  1.0000  -20.4831   0.0000   0.0000   0.0000   0.2670
  15.500   1.7798   0.04655   0.04314  -0.0631  0.0020  1.0000  -21.0745   0.0000   0.0000   0.0000   0.2639
  16.000   1.7624   0.05347   0.05035  -0.0606  0.0018  1.0000  -21.4906   0.0000   0.0000   0.0000   0.2617


