xflr5 v6.57

 Calculated polar for: KC-135 Winglet (supercritical Whitcomb)

 1 1 Reynolds number fixed          Mach number fixed         

 xtrf =   1.000 (top)        1.000 (bottom)
 Mach =   0.000     Re =     0.100 e 6     Ncrit =   9.000

  alpha     CL        CD       CDp       Cm    Top Xtr Bot Xtr   Cpmin    Chinge    XCp    
 ------- -------- --------- --------- -------- ------- ------- -------- --------- ---------
 -12.000  -0.2055   0.07841   0.07422  -0.0308  1.0000  0.0564  -0.7089   0.0000   0.0000   0.0000   0.1038
 -11.500  -0.2032   0.07481   0.07071  -0.0289  1.0000  0.0613  -0.6998   0.0000   0.0000   0.0000   0.1114
 -11.000  -0.2067   0.07196   0.06795  -0.0276  1.0000  0.0681  -0.7260   0.0000   0.0000   0.0000   0.1203
 -10.500  -0.2249   0.07154   0.06762  -0.0280  1.0000  0.0734  -0.8295   0.0000   0.0000   0.0000   0.1285
 -10.000  -0.2465   0.07129   0.06746  -0.0288  1.0000  0.0748  -0.9440   0.0000   0.0000   0.0000   0.1360
  -9.500  -0.4330   0.10986   0.10468  -0.0292  1.0000  0.0538  -1.5738   0.0000   0.0000   0.0000   0.1779
  -9.000  -0.4187   0.10287   0.09774  -0.0280  1.0000  0.0594  -1.4881   0.0000   0.0000   0.0000   0.1786
  -8.500  -0.4160   0.09692   0.09192  -0.0296  1.0000  0.0670  -1.5094   0.0000   0.0000   0.0000   0.1748
  -8.000  -0.4332   0.09313   0.08836  -0.0324  1.0000  0.0727  -1.6361   0.0000   0.0000   0.0000   0.1720
  -7.500  -0.4416   0.08839   0.08365  -0.0446  1.0000  0.0748  -1.8320   0.0000   0.0000   0.0000   0.1465
  -7.000  -0.4395   0.07898   0.07452  -0.0335  1.0000  0.0836  -1.6322   0.0000   0.0000   0.0000   0.1711
  -6.500  -0.4354   0.07235   0.06794  -0.0372  1.0000  0.0908  -1.6134   0.0000   0.0000   0.0000   0.1623
  -6.000  -0.4138   0.06347   0.05865  -0.0514  1.0000  0.1025  -1.7225   0.0000   0.0000   0.0000   0.1239
  -5.500  -0.3961   0.05759   0.05299  -0.0473  1.0000  0.1136  -1.4661   0.0000   0.0000   0.0000   0.1288
  -5.000  -0.3454   0.05179   0.04648  -0.0578  1.0000  0.1517  -1.3789   0.0000   0.0000   0.0000   0.0808
  -4.500  -0.3180   0.04596   0.04098  -0.0554  1.0000  0.1835  -1.2201   0.0000   0.0000   0.0000   0.0742
  -4.000  -0.2806   0.04274   0.03785  -0.0544  1.0000  0.2407  -1.0750   0.0000   0.0000   0.0000   0.0546
  -3.500  -0.2568   0.03970   0.03516  -0.0486  1.0000  0.3405  -0.9331   0.0000   0.0000   0.0000   0.0591
  -3.000  -0.0730   0.02752   0.01937  -0.0755  1.0000  0.0769  -1.2862   0.0000   0.0000   0.0000  -0.7907
  -2.500  -0.0019   0.02347   0.01461  -0.0777  1.0000  0.0563  -1.2420   0.0000   0.0000   0.0000  -40.0810
  -2.000   0.0546   0.02243   0.01333  -0.0774  1.0000  0.0492  -1.1154   0.0000   0.0000   0.0000   1.6751
  -1.500   0.1227   0.02034   0.01123  -0.0799  1.0000  0.0453  -0.9895   0.0000   0.0000   0.0000   0.9038
  -1.000   0.1881   0.01970   0.01035  -0.0825  1.0000  0.0453  -0.8305   0.0000   0.0000   0.0000   0.6895
  -0.500   0.2483   0.01975   0.01011  -0.0842  1.0000  0.0566  -0.6847   0.0000   0.0000   0.0000   0.5891
   0.000   0.2988   0.01872   0.01161  -0.0819  1.0000  0.8395  -0.5353   0.0000   0.0000   0.0000   0.5236
   0.500   0.3026   0.01880   0.01184  -0.0709  1.0000  0.9404  -0.4578   0.0000   0.0000   0.0000   0.4832
   1.000   0.3452   0.01957   0.01252  -0.0711  0.9957  1.0000  -0.5465   0.0000   0.0000   0.0000   0.4547
   1.500   0.4569   0.02047   0.01344  -0.0838  0.9763  1.0000  -0.7391   0.0000   0.0000   0.0000   0.4317
   2.000   0.5606   0.02042   0.01348  -0.0935  0.9446  1.0000  -0.9507   0.0000   0.0000   0.0000   0.4147
   2.500   0.6936   0.01788   0.01118  -0.1044  0.9000  1.0000  -1.2340   0.0000   0.0000   0.0000   0.3980
   3.000   0.7677   0.01663   0.01020  -0.1053  0.8607  1.0000  -1.4333   0.0000   0.0000   0.0000   0.3843
   3.500   0.8394   0.01463   0.00860  -0.1036  0.7912  1.0000  -1.7163   0.0000   0.0000   0.0000   0.3702
   4.000   0.8798   0.01549   0.00750  -0.0961  0.3840  1.0000  -1.9980   0.0000   0.0000   0.0000   0.3555
   4.500   0.9152   0.01941   0.00996  -0.0929  0.1916  1.0000  -2.2265   0.0000   0.0000   0.0000   0.3474
   5.000   0.9654   0.02190   0.01224  -0.0922  0.1599  1.0000  -2.5122   0.0000   0.0000   0.0000   0.3409
   5.500   1.0179   0.02476   0.01517  -0.0919  0.1333  1.0000  -2.8454   0.0000   0.0000   0.0000   0.3351
   6.000   1.0665   0.02726   0.01765  -0.0913  0.1044  1.0000  -3.1455   0.0000   0.0000   0.0000   0.3300
   6.500   1.1169   0.03149   0.02225  -0.0902  0.0811  1.0000  -3.2774   0.0000   0.0000   0.0000   0.3245
   7.000   1.1607   0.03917   0.03073  -0.0881  0.0720  1.0000  -3.2793   0.0000   0.0000   0.0000   0.3192
   7.500   1.1932   0.04679   0.03938  -0.0845  0.0706  1.0000  -3.3156   0.0000   0.0000   0.0000   0.3138
   8.000   1.2081   0.05651   0.05004  -0.0801  0.0719  1.0000  -3.4797   0.0000   0.0000   0.0000   0.3089
   8.500   1.2174   0.06798   0.06226  -0.0766  0.0760  1.0000  -3.6241   0.0000   0.0000   0.0000   0.3051
   9.000   1.1578   0.08243   0.07792  -0.0695  0.0929  1.0000  -3.0670   0.0000   0.0000   0.0000   0.3022
   9.500   1.0569   0.10960   0.10557  -0.0770  0.1471  1.0000  -2.2223   0.0000   0.0000   0.0000   0.3151
  10.000   1.0005   0.12609   0.12196  -0.0932  0.1365  1.0000  -1.9484   0.0000   0.0000   0.0000   0.3351
  10.500   0.9975   0.13629   0.13216  -0.0964  0.1318  1.0000  -1.9364   0.0000   0.0000   0.0000   0.3380
  11.000   1.0135   0.14485   0.14076  -0.0951  0.1278  1.0000  -2.0347   0.0000   0.0000   0.0000   0.3346
  11.500   1.0263   0.15932   0.15525  -0.0933  0.1246  1.0000  -2.2364   0.0000   0.0000   0.0000   0.3312
  12.000   0.9822   0.16863   0.16439  -0.1103  0.1191  1.0000  -1.7918   0.0000   0.0000   0.0000   0.3522
  12.500   0.9819   0.17761   0.17336  -0.1156  0.1120  1.0000  -1.8210   0.0000   0.0000   0.0000   0.3570
  13.000   0.9925   0.18591   0.18170  -0.1180  0.1067  1.0000  -1.9781   0.0000   0.0000   0.0000   0.3575
  13.500   1.0273   0.20108   0.19698  -0.1107  0.0998  1.0000  -2.4834   0.0000   0.0000   0.0000   0.3458
  14.000   1.0232   0.20870   0.20456  -0.1191  0.0990  1.0000  -2.3930   0.0000   0.0000   0.0000   0.3538
  14.500   1.0114   0.21254   0.20831  -0.1310  0.0936  1.0000  -2.1767   0.0000   0.0000   0.0000   0.3662
  15.000   1.0207   0.22018   0.21597  -0.1358  0.0864  1.0000  -2.2445   0.0000   0.0000   0.0000   0.3690
  15.500   1.0394   0.22832   0.22429  -0.1367  0.0793  1.0000  -2.4444   0.0000   0.0000   0.0000   0.3667
  16.000   1.0653   0.25010   0.24616  -0.1328  0.0748  1.0000  -2.7367   0.0000   0.0000   0.0000   0.3594


