xflr5 v6.57

 Calculated polar for: KC-135 Winglet (supercritical Whitcomb)

 1 1 Reynolds number fixed          Mach number fixed         

 xtrf =   1.000 (top)        1.000 (bottom)
 Mach =   0.000     Re =     0.030 e 6     Ncrit =   9.000

  alpha     CL        CD       CDp       Cm    Top Xtr Bot Xtr   Cpmin    Chinge    XCp    
 ------- -------- --------- --------- -------- ------- ------- -------- --------- ---------
 -10.000  -0.4479   0.13405   0.12480  -0.0020  1.0000  0.3955  -1.0936   0.0000   0.0000   0.0000   0.2400
  -9.750  -0.4286   0.12601   0.11680  -0.0021  1.0000  0.4114  -1.0498   0.0000   0.0000   0.0000   0.2395
  -9.500  -0.4156   0.12304   0.11385  -0.0010  1.0000  0.4398  -1.0049   0.0000   0.0000   0.0000   0.2420
  -9.250  -0.4614   0.13325   0.12432   0.0022  1.0000  0.4497  -1.0858   0.0000   0.0000   0.0000   0.2500
  -9.000  -0.3949   0.11577   0.10668   0.0007  1.0000  0.4888  -0.9258   0.0000   0.0000   0.0000   0.2461
  -8.750  -0.3895   0.11213   0.10313   0.0017  1.0000  0.5111  -0.8946   0.0000   0.0000   0.0000   0.2486
  -8.500  -0.3768   0.10873   0.09960   0.0031  1.0000  0.5461  -0.8444   0.0000   0.0000   0.0000   0.2525
  -8.250  -0.3680   0.10570   0.09665   0.0042  1.0000  0.5717  -0.8366   0.0000   0.0000   0.0000   0.2556
  -8.000  -0.3713   0.10495   0.09598   0.0068  1.0000  0.6000  -0.8403   0.0000   0.0000   0.0000   0.2627
  -7.750  -0.3384   0.09782   0.08885   0.0054  1.0000  0.6307  -0.8112   0.0000   0.0000   0.0000   0.2601
  -7.500  -0.3194   0.09360   0.08466   0.0054  1.0000  0.6608  -0.7969   0.0000   0.0000   0.0000   0.2607
  -7.250  -0.3049   0.09007   0.08117   0.0057  1.0000  0.6894  -0.7882   0.0000   0.0000   0.0000   0.2622
  -7.000  -0.2913   0.08658   0.07773   0.0057  1.0000  0.7142  -0.7819   0.0000   0.0000   0.0000   0.2633
  -6.750  -0.2794   0.08325   0.07445   0.0058  1.0000  0.7349  -0.7781   0.0000   0.0000   0.0000   0.2643
  -6.500  -0.2740   0.08088   0.07216   0.0068  1.0000  0.7539  -0.7798   0.0000   0.0000   0.0000   0.2684
  -6.250  -0.2668   0.07798   0.06933   0.0066  1.0000  0.7553  -0.7824   0.0000   0.0000   0.0000   0.2685
  -6.000  -0.2695   0.07596   0.06743   0.0068  1.0000  0.7335  -0.7950   0.0000   0.0000   0.0000   0.2694
  -5.750  -0.3148   0.07683   0.06858   0.0079  1.0000  0.6337  -0.8547   0.0000   0.0000   0.0000   0.2709
  -5.500  -0.3831   0.07749   0.06967   0.0076  1.0000  0.5120  -0.9590   0.0000   0.0000   0.0000   0.2669
  -5.250  -0.4115   0.07275   0.06512  -0.0082  1.0000  0.3727  -1.0994   0.0000   0.0000   0.0000   0.2280
  -5.000  -0.3712   0.06243   0.05415  -0.0430  1.0000  0.2450  -1.3165   0.0000   0.0000   0.0000   0.1326
  -4.750  -0.3235   0.05729   0.04829  -0.0553  1.0000  0.2008  -1.3929   0.0000   0.0000   0.0000   0.0774
  -4.500  -0.2841   0.04955   0.03976  -0.0640  1.0000  0.1746  -1.4582   0.0000   0.0000   0.0000   0.0228
  -4.250  -0.2581   0.04531   0.03548  -0.0652  1.0000  0.1645  -1.4392   0.0000   0.0000   0.0000  -0.0049
  -4.000  -0.2136   0.04212   0.03128  -0.0701  1.0000  0.1489  -1.4686   0.0000   0.0000   0.0000  -0.0812
  -3.750  -0.1839   0.03896   0.02791  -0.0713  1.0000  0.1431  -1.4424   0.0000   0.0000   0.0000  -0.1406
  -3.500  -0.1528   0.03651   0.02500  -0.0722  1.0000  0.1370  -1.4252   0.0000   0.0000   0.0000  -0.2259
  -3.250  -0.1217   0.03458   0.02251  -0.0724  1.0000  0.1320  -1.4096   0.0000   0.0000   0.0000  -0.3498
  -3.000  -0.0932   0.03304   0.02051  -0.0719  1.0000  0.1305  -1.3772   0.0000   0.0000   0.0000  -0.5272
  -2.750  -0.0666   0.03159   0.01860  -0.0712  1.0000  0.1368  -1.3052   0.0000   0.0000   0.0000  -0.8278
  -2.500  -0.0403   0.03044   0.01720  -0.0704  1.0000  0.1432  -1.2628   0.0000   0.0000   0.0000  -1.5096
  -2.250  -0.0134   0.02940   0.01596  -0.0696  1.0000  0.1515  -1.2240   0.0000   0.0000   0.0000  -4.9658
  -2.000   0.0160   0.02809   0.01473  -0.0699  1.0000  0.1669  -1.1779   0.0000   0.0000   0.0000   4.6535
  -1.750   0.0504   0.02687   0.01359  -0.0713  1.0000  0.1916  -1.1468   0.0000   0.0000   0.0000   1.6722
  -1.500   0.0788   0.02406   0.01348  -0.0703  1.0000  0.6627  -1.1570   0.0000   0.0000   0.0000   1.1470
  -1.250   0.0663   0.02376   0.01343  -0.0587  1.0000  0.8592  -1.1818   0.0000   0.0000   0.0000   1.1394
  -1.000   0.0573   0.02293   0.01256  -0.0504  1.0000  1.0000  -1.2032   0.0000   0.0000   0.0000   1.1330
  -0.750   0.0878   0.02324   0.01194  -0.0506  1.0000  1.0000  -1.2174   0.0000   0.0000   0.0000   0.8281
  -0.500   0.1180   0.02356   0.01163  -0.0517  1.0000  1.0000  -1.1519   0.0000   0.0000   0.0000   0.6886
  -0.250   0.1478   0.02392   0.01153  -0.0530  1.0000  1.0000  -1.0349   0.0000   0.0000   0.0000   0.6085
   0.000   0.1770   0.02431   0.01157  -0.0543  1.0000  1.0000  -0.8965   0.0000   0.0000   0.0000   0.5563
   0.250   0.2056   0.02474   0.01173  -0.0555  1.0000  1.0000  -0.7491   0.0000   0.0000   0.0000   0.5192
   0.500   0.2337   0.02522   0.01199  -0.0567  1.0000  1.0000  -0.5985   0.0000   0.0000   0.0000   0.4915
   0.750   0.2611   0.02573   0.01236  -0.0577  1.0000  1.0000  -0.4479   0.0000   0.0000   0.0000   0.4699
   1.000   0.2880   0.02629   0.01281  -0.0588  1.0000  1.0000  -0.4847   0.0000   0.0000   0.0000   0.4526
   1.250   0.3143   0.02689   0.01335  -0.0597  1.0000  1.0000  -0.5370   0.0000   0.0000   0.0000   0.4383
   1.500   0.3401   0.02753   0.01398  -0.0606  1.0000  1.0000  -0.5908   0.0000   0.0000   0.0000   0.4264
   1.750   0.3653   0.02823   0.01470  -0.0615  1.0000  1.0000  -0.6447   0.0000   0.0000   0.0000   0.4163
   2.000   0.3899   0.02898   0.01551  -0.0623  1.0000  1.0000  -0.6984   0.0000   0.0000   0.0000   0.4075
   2.250   0.4140   0.02979   0.01652  -0.0631  1.0000  1.0000  -0.7517   0.0000   0.0000   0.0000   0.4000
   2.500   0.4375   0.03066   0.01745  -0.0639  1.0000  1.0000  -0.8044   0.0000   0.0000   0.0000   0.3934
   2.750   0.4605   0.03161   0.01849  -0.0647  1.0000  1.0000  -0.8647   0.0000   0.0000   0.0000   0.3876
   3.000   0.4827   0.03265   0.01965  -0.0655  1.0000  1.0000  -0.9259   0.0000   0.0000   0.0000   0.3826
   3.250   0.5042   0.03379   0.02093  -0.0663  1.0000  1.0000  -0.9863   0.0000   0.0000   0.0000   0.3782
   3.500   0.5247   0.03505   0.02236  -0.0672  1.0000  1.0000  -1.0454   0.0000   0.0000   0.0000   0.3745
   3.750   0.5442   0.03646   0.02397  -0.0681  1.0000  1.0000  -1.1025   0.0000   0.0000   0.0000   0.3714
   4.000   0.5625   0.03806   0.02579  -0.0692  1.0000  1.0000  -1.1565   0.0000   0.0000   0.0000   0.3690
   4.250   0.5789   0.03992   0.02791  -0.0704  1.0000  1.0000  -1.2059   0.0000   0.0000   0.0000   0.3674
   4.500   0.5930   0.04215   0.03042  -0.0719  1.0000  1.0000  -1.2480   0.0000   0.0000   0.0000   0.3668
   4.750   0.9009   0.02845   0.01838  -0.0857  0.5478  1.0000  -2.0525   0.0000   0.0000   0.0000   0.3410
   5.000   0.9231   0.03125   0.02000  -0.0819  0.4240  1.0000  -2.1422   0.0000   0.0000   0.0000   0.3344
   5.250   0.9502   0.03401   0.02242  -0.0809  0.3669  1.0000  -2.2479   0.0000   0.0000   0.0000   0.3306
   5.500   0.9825   0.03712   0.02565  -0.0813  0.3328  1.0000  -2.3548   0.0000   0.0000   0.0000   0.3281
   5.750   1.0126   0.04066   0.02925  -0.0813  0.2989  1.0000  -2.4905   0.0000   0.0000   0.0000   0.3254
   6.000   1.0367   0.04380   0.03310  -0.0808  0.2848  1.0000  -2.5626   0.0000   0.0000   0.0000   0.3229
   6.250   1.0592   0.04763   0.03745  -0.0803  0.2728  1.0000  -2.6073   0.0000   0.0000   0.0000   0.3207
   6.500   1.0787   0.05172   0.04188  -0.0795  0.2617  1.0000  -2.6415   0.0000   0.0000   0.0000   0.3183
   6.750   1.0899   0.05687   0.04716  -0.0783  0.2448  1.0000  -2.6655   0.0000   0.0000   0.0000   0.3163
   7.000   1.0961   0.06080   0.05164  -0.0769  0.2364  1.0000  -2.6486   0.0000   0.0000   0.0000   0.3144
   7.250   1.0979   0.06600   0.05730  -0.0759  0.2340  1.0000  -2.6096   0.0000   0.0000   0.0000   0.3133
   7.500   1.0945   0.07164   0.06330  -0.0753  0.2338  1.0000  -2.5588   0.0000   0.0000   0.0000   0.3128
   7.750   1.0859   0.07766   0.06957  -0.0750  0.2355  1.0000  -2.4994   0.0000   0.0000   0.0000   0.3130
   8.000   1.0740   0.08399   0.07608  -0.0752  0.2383  1.0000  -2.4355   0.0000   0.0000   0.0000   0.3138
   8.250   1.0621   0.09070   0.08289  -0.0759  0.2418  1.0000  -2.3714   0.0000   0.0000   0.0000   0.3151
   8.500   1.0566   0.09835   0.09058  -0.0769  0.2460  1.0000  -2.3138   0.0000   0.0000   0.0000   0.3163
   8.750   1.0610   0.10568   0.09806  -0.0783  0.2519  1.0000  -2.2647   0.0000   0.0000   0.0000   0.3172
   9.000   0.9661   0.11491   0.10701  -0.0923  0.2781  1.0000  -1.9979   0.0000   0.0000   0.0000   0.3386
   9.250   0.9745   0.12363   0.11577  -0.0945  0.2935  1.0000  -1.9482   0.0000   0.0000   0.0000   0.3399
   9.500   0.8689   0.14430   0.13589  -0.1312  0.5991  1.0000  -1.4957   0.0000   0.0000   0.0000   0.3935
   9.750   0.8668   0.14646   0.13805  -0.1292  0.5718  1.0000  -1.5009   0.0000   0.0000   0.0000   0.3913
  10.000   0.8971   0.15430   0.14599  -0.1308  0.5497  1.0000  -1.5577   0.0000   0.0000   0.0000   0.3879
  10.250   0.8639   0.15249   0.14408  -0.1280  0.5385  1.0000  -1.4962   0.0000   0.0000   0.0000   0.3899
  10.500   0.8702   0.15641   0.14805  -0.1280  0.5199  1.0000  -1.5069   0.0000   0.0000   0.0000   0.3886
  10.750   0.9184   0.16915   0.16121  -0.1308  0.5038  1.0000  -1.4880   0.0000   0.0000   0.0000   0.3839
  11.000   0.9157   0.17446   0.16647  -0.1312  0.4960  1.0000  -1.4581   0.0000   0.0000   0.0000   0.3845
  11.250   0.8897   0.16967   0.16160  -0.1289  0.4757  1.0000  -1.4308   0.0000   0.0000   0.0000   0.3858
  11.500   0.9503   0.18860   0.18072  -0.1307  0.4479  1.0000  -1.4659   0.0000   0.0000   0.0000   0.3784
  11.750   0.9163   0.18199   0.17399  -0.1297  0.4411  1.0000  -1.4123   0.0000   0.0000   0.0000   0.3819
  12.000   0.9918   0.20537   0.19762  -0.1293  0.3995  1.0000  -1.5284   0.0000   0.0000   0.0000   0.3709
  12.250   0.9527   0.19667   0.18876  -0.1293  0.3961  1.0000  -1.4540   0.0000   0.0000   0.0000   0.3758
  12.500   0.9276   0.19080   0.18281  -0.1295  0.3811  1.0000  -1.4057   0.0000   0.0000   0.0000   0.3792
  12.750   0.9380   0.19492   0.18696  -0.1298  0.3660  1.0000  -1.4180   0.0000   0.0000   0.0000   0.3778
  13.000   1.0190   0.22694   0.21928  -0.1296  0.3497  1.0000  -1.5666   0.0000   0.0000   0.0000   0.3668
  13.250   0.9927   0.22057   0.21280  -0.1311  0.3479  1.0000  -1.5041   0.0000   0.0000   0.0000   0.3712
  13.500   0.9608   0.21009   0.20217  -0.1327  0.3405  1.0000  -1.4322   0.0000   0.0000   0.0000   0.3766
  13.750   0.9588   0.21024   0.20232  -0.1340  0.3270  1.0000  -1.4199   0.0000   0.0000   0.0000   0.3779
  14.000   0.9706   0.21493   0.20706  -0.1344  0.3151  1.0000  -1.4689   0.0000   0.0000   0.0000   0.3764
  14.250   1.0091   0.23080   0.22313  -0.1335  0.3037  1.0000  -1.6960   0.0000   0.0000   0.0000   0.3701
  14.500   1.0311   0.24838   0.24076  -0.1345  0.2987  1.0000  -1.8206   0.0000   0.0000   0.0000   0.3680
  14.750   1.0098   0.23929   0.23154  -0.1371  0.2961  1.0000  -1.7365   0.0000   0.0000   0.0000   0.3729
  15.000   0.9959   0.23194   0.22412  -0.1399  0.2876  1.0000  -1.6838   0.0000   0.0000   0.0000   0.3771


