xflr5 v6.57

 Calculated polar for: KC-135 Winglet (supercritical Whitcomb)

 1 1 Reynolds number fixed          Mach number fixed         

 xtrf =   1.000 (top)        1.000 (bottom)
 Mach =   0.000     Re =     0.800 e 6     Ncrit =   9.000

  alpha     CL        CD       CDp       Cm    Top Xtr Bot Xtr   Cpmin    Chinge    XCp    
 ------- -------- --------- --------- -------- ------- ------- -------- --------- ---------
 -11.500  -0.1405   0.05664   0.05507  -0.0497  0.9876  0.0059  -1.2776   0.0000   0.0000   0.0000  -0.0992
 -11.000  -0.1187   0.05143   0.04985  -0.0536  0.9845  0.0069  -1.0894   0.0000   0.0000   0.0000  -0.1954
 -10.500  -0.1007   0.04615   0.04459  -0.0580  0.9818  0.0097  -1.0222   0.0000   0.0000   0.0000  -0.3190
 -10.000  -0.4180   0.11012   0.10814  -0.0246  1.0000  0.0051  -1.7691   0.0000   0.0000   0.0000   0.1857
  -9.500  -0.4096   0.10273   0.10078  -0.0273  1.0000  0.0051  -1.8255   0.0000   0.0000   0.0000   0.1780
  -9.000  -0.4033   0.09541   0.09351  -0.0300  1.0000  0.0051  -1.8961   0.0000   0.0000   0.0000   0.1708
  -8.500  -0.4032   0.08856   0.08671  -0.0314  1.0000  0.0051  -2.0011   0.0000   0.0000   0.0000   0.1676
  -8.000  -0.4223   0.08374   0.08198  -0.0281  1.0000  0.0052  -2.1220   0.0000   0.0000   0.0000   0.1797
  -7.500  -0.4145   0.06829   0.06659  -0.0463  0.9935  0.0069  -2.5507   0.0000   0.0000   0.0000   0.1348
  -7.000  -0.3565   0.05601   0.05414  -0.0683  0.9860  0.0097  -2.4372   0.0000   0.0000   0.0000   0.0550
  -5.500  -0.1449   0.03364   0.03068  -0.0993  0.9754  0.0127  -2.0366   0.0000   0.0000   0.0000  -0.4419
  -5.000  -0.0774   0.02283   0.01912  -0.1075  0.9702  0.0138  -2.2651   0.0000   0.0000   0.0000  -1.1506
  -4.500  -0.0121   0.01884   0.01486  -0.1120  0.9645  0.0161  -1.9025   0.0000   0.0000   0.0000  -9.0795
  -4.000   0.0546   0.01623   0.01197  -0.1151  0.9582  0.0203  -1.5806   0.0000   0.0000   0.0000   2.3742
  -3.500   0.1201   0.01626   0.01166  -0.1164  0.9494  0.0252  -1.2657   0.0000   0.0000   0.0000   1.2251
  -3.000   0.1805   0.01197   0.00721  -0.1184  0.9384  0.0342  -1.0673   0.0000   0.0000   0.0000   0.9095
  -2.000   0.2500   0.00000  -0.00396  -0.0942  0.8274  0.1130  -0.3038   0.0000   0.0000   0.0000   0.6257
  -1.500   0.3053   0.00000  -0.00439  -0.0920  0.8111  0.0236  -0.3674   0.0000   0.0000   0.0000   0.5504
  -1.000   0.3582   0.00000  -0.00462  -0.0920  0.7866  0.0178  -0.2860   0.0000   0.0000   0.0000   0.5060
  -0.500   0.4089   0.00000  -0.00477  -0.0918  0.7616  0.0144  -0.3852   0.0000   0.0000   0.0000   0.4735
   0.000   0.4622   0.00000  -0.00434  -0.0926  0.7240  0.2975  -0.5212   0.0000   0.0000   0.0000   0.4494
   0.500   0.5140   0.00000  -0.00390  -0.0932  0.6800  0.5446  -0.6583   0.0000   0.0000   0.0000   0.4300
   1.000   0.5594   0.00000  -0.00381  -0.0919  0.5815  0.7228  -0.7996   0.0000   0.0000   0.0000   0.4129
   1.500   0.6020   0.00000  -0.00448  -0.0910  0.3926  0.7354  -0.9417   0.0000   0.0000   0.0000   0.3995
   2.000   0.6443   0.00000  -0.00525  -0.0902  0.2087  0.7449  -1.0872   0.0000   0.0000   0.0000   0.3881
   2.500   0.6890   0.00000  -0.00562  -0.0894  0.1336  0.7546  -1.2401   0.0000   0.0000   0.0000   0.3776
   3.000   0.7345   0.00000  -0.00572  -0.0885  0.0945  0.7623  -1.4972   0.0000   0.0000   0.0000   0.3680
   3.500   0.7803   0.00000  -0.00580  -0.0876  0.0745  0.7703  -1.7940   0.0000   0.0000   0.0000   0.3594
   4.000   0.8258   0.00000  -0.00581  -0.0866  0.0652  0.7783  -2.1085   0.0000   0.0000   0.0000   0.3515
   4.500   0.8690   0.00001  -0.00584  -0.0851  0.0491  0.7880  -2.4247   0.0000   0.0000   0.0000   0.3441
   5.000   0.9102   0.00002  -0.00583  -0.0832  0.0356  0.7978  -2.7435   0.0000   0.0000   0.0000   0.3372
   5.500   0.9464   0.00006  -0.00577  -0.0802  0.0228  0.8076  -2.9860   0.0000   0.0000   0.0000   0.3301
   6.000   0.9738   0.00018  -0.00547  -0.0754  0.0219  0.8171  -3.2229   0.0000   0.0000   0.0000   0.3222
   6.500   0.9118   0.00072  -0.00460  -0.0538  0.0219  0.8188  -3.1811   0.0000   0.0000   0.0000   0.3036
   7.000   0.9145   0.00121  -0.00390  -0.0459  0.0216  0.8266  -3.3332   0.0000   0.0000   0.0000   0.2944
   7.500   0.9179   0.00187  -0.00298  -0.0388  0.0216  0.8367  -3.4817   0.0000   0.0000   0.0000   0.2860
   8.000   0.9223   0.00278  -0.00180  -0.0326  0.0217  0.8467  -3.6257   0.0000   0.0000   0.0000   0.2786
   8.500   0.9270   0.00395  -0.00036  -0.0270  0.0218  0.8580  -3.9181   0.0000   0.0000   0.0000   0.2719
   9.000   0.9344   0.00542   0.00138  -0.0223  0.0221  0.8708  -4.3033   0.0000   0.0000   0.0000   0.2660
   9.500   0.9433   0.00708   0.00332  -0.0182  0.0220  0.8857  -4.7158   0.0000   0.0000   0.0000   0.2608
  10.000   0.9495   0.00926   0.00581  -0.0145  0.0221  0.9037  -5.0950   0.0000   0.0000   0.0000   0.2562
  10.500   0.9438   0.01195   0.00887  -0.0104  0.0223  0.9329  -5.3655   0.0000   0.0000   0.0000   0.2514
  11.000   0.9301   0.01553   0.01279  -0.0074  0.0225  1.0000  -5.5477   0.0000   0.0000   0.0000   0.2477
  11.500   0.9071   0.02037   0.01795  -0.0064  0.0226  1.0000  -5.6194   0.0000   0.0000   0.0000   0.2462
  12.000   0.8750   0.02656   0.02444  -0.0077  0.0227  1.0000  -5.5631   0.0000   0.0000   0.0000   0.2474
  12.500   0.8371   0.03464   0.03282  -0.0123  0.0228  1.0000  -5.3777   0.0000   0.0000   0.0000   0.2527
  13.000   0.7940   0.04582   0.04429  -0.0213  0.0230  1.0000  -5.0114   0.0000   0.0000   0.0000   0.2643
  13.500   0.7294   0.06655   0.06530  -0.0390  0.0232  1.0000  -4.0286   0.0000   0.0000   0.0000   0.2911
  14.000   1.0512   0.18576   0.18437  -0.1257  0.0235  1.0000  -3.4683   0.0000   0.0000   0.0000   0.3556
  14.500   1.0419   0.20059   0.19919  -0.1315  0.0247  1.0000  -3.1729   0.0000   0.0000   0.0000   0.3619
  15.500   1.6674   0.05983   0.05721  -0.0606  0.0046  1.0000  -18.7615   0.0000   0.0000   0.0000   0.2649
  16.000   1.6213   0.07303   0.07084  -0.0636  0.0049  1.0000  -18.5512   0.0000   0.0000   0.0000   0.2666


