xflr5 v6.57

 Calculated polar for: KC-135 Winglet (supercritical Whitcomb)

 1 1 Reynolds number fixed          Mach number fixed         

 xtrf =   1.000 (top)        1.000 (bottom)
 Mach =   0.000     Re =     0.500 e 6     Ncrit =   9.000

  alpha     CL        CD       CDp       Cm    Top Xtr Bot Xtr   Cpmin    Chinge    XCp    
 ------- -------- --------- --------- -------- ------- ------- -------- --------- ---------
 -12.000  -0.1817   0.07028   0.06836  -0.0349  0.9947  0.0084  -0.8361   0.0000   0.0000   0.0000   0.0623
 -11.500  -0.1632   0.06414   0.06221  -0.0395  0.9911  0.0099  -0.8490   0.0000   0.0000   0.0000   0.0129
 -11.000  -0.1480   0.05940   0.05748  -0.0447  0.9875  0.0123  -0.9390   0.0000   0.0000   0.0000  -0.0475
 -10.500  -0.4397   0.11514   0.11264  -0.0216  1.0000  0.0064  -1.9180   0.0000   0.0000   0.0000   0.1951
 -10.000  -0.4302   0.10839   0.10593  -0.0240  1.0000  0.0067  -1.8712   0.0000   0.0000   0.0000   0.1886
  -9.500  -0.4219   0.10167   0.09924  -0.0266  1.0000  0.0072  -1.8438   0.0000   0.0000   0.0000   0.1818
  -9.000  -0.4153   0.09496   0.09258  -0.0291  1.0000  0.0079  -1.8470   0.0000   0.0000   0.0000   0.1751
  -8.500  -0.4140   0.08856   0.08625  -0.0308  1.0000  0.0087  -1.8804   0.0000   0.0000   0.0000   0.1714
  -8.000  -0.4269   0.08338   0.08117  -0.0292  1.0000  0.0096  -1.9555   0.0000   0.0000   0.0000   0.1779
  -7.500  -0.4575   0.07980   0.07773  -0.0239  1.0000  0.0101  -2.0557   0.0000   0.0000   0.0000   0.1947
  -7.000  -0.1386   0.01312   0.01122  -0.0768  0.9622  0.0225  -1.3168   0.0000   0.0000   0.0000  -0.3020
  -6.500  -0.1489   0.00710   0.00498  -0.0857  0.9554  0.0228  -1.4718   0.0000   0.0000   0.0000  -0.3238
  -6.000  -0.1146   0.00382   0.00131  -0.0898  0.9474  0.0248  -1.4846   0.0000   0.0000   0.0000  -0.5316
  -5.500  -0.0799   0.00163  -0.00124  -0.0910  0.9339  0.0251  -1.4241   0.0000   0.0000   0.0000  -0.8856
  -5.000  -0.0447   0.00019  -0.00305  -0.0933  0.9226  0.0275  -1.4180   0.0000   0.0000   0.0000  -1.8290
  -4.500  -0.0015   0.00005  -0.00338  -0.0935  0.9095  0.0317  -1.1844   0.0000   0.0000   0.0000  -63.1541
  -4.000   0.0192   0.01965   0.01496  -0.1097  0.9662  0.0338  -1.4379   0.0000   0.0000   0.0000   5.9992
  -3.500   0.0925   0.01677   0.01175  -0.1141  0.9623  0.0439  -1.1774   0.0000   0.0000   0.0000   1.4913
  -2.500   0.2361   0.01164   0.00647  -0.1226  0.9534  0.1105  -0.6582   0.0000   0.0000   0.0000   0.7715
  -2.000   0.3042   0.01001   0.00431  -0.1210  0.9447  0.0268  -0.8011   0.0000   0.0000   0.0000   0.6493
  -1.500   0.3704   0.00889   0.00310  -0.1231  0.9352  0.0211  -0.6343   0.0000   0.0000   0.0000   0.5832
  -1.000   0.4329   0.00841   0.00244  -0.1241  0.9239  0.0179  -0.4578   0.0000   0.0000   0.0000   0.5370
  -0.500   0.4857   0.00812   0.00197  -0.1225  0.8963  0.0165  -0.5556   0.0000   0.0000   0.0000   0.5020
   0.000   0.5515   0.00654   0.00194  -0.1255  0.8664  0.6375  -0.7058   0.0000   0.0000   0.0000   0.4770
   0.500   0.6051   0.00656   0.00196  -0.1244  0.8303  0.6877  -0.8498   0.0000   0.0000   0.0000   0.4547
   1.000   0.6529   0.00688   0.00255  -0.1215  0.8001  0.7966  -0.9971   0.0000   0.0000   0.0000   0.4348
   1.500   0.7074   0.00703   0.00259  -0.1210  0.7560  0.8045  -1.1583   0.0000   0.0000   0.0000   0.4194
   2.000   0.7585   0.00747   0.00268  -0.1198  0.6554  0.8132  -1.3199   0.0000   0.0000   0.0000   0.4058
   2.500   0.7973   0.00999   0.00346  -0.1172  0.2920  0.8231  -1.4652   0.0000   0.0000   0.0000   0.3945
   3.000   0.8449   0.01129   0.00407  -0.1162  0.1548  0.8340  -1.6972   0.0000   0.0000   0.0000   0.3846
   3.500   0.8963   0.01205   0.00465  -0.1157  0.1040  0.8451  -1.9998   0.0000   0.0000   0.0000   0.3757
   4.000   0.9483   0.01260   0.00514  -0.1152  0.0832  0.8570  -2.3369   0.0000   0.0000   0.0000   0.3676
   4.500   1.0000   0.01309   0.00569  -0.1145  0.0717  0.8705  -2.6875   0.0000   0.0000   0.0000   0.3602
   5.000   1.0497   0.01369   0.00639  -0.1134  0.0579  0.8859  -3.0736   0.0000   0.0000   0.0000   0.3532
   5.500   1.0979   0.01445   0.00712  -0.1121  0.0396  0.9048  -3.3969   0.0000   0.0000   0.0000   0.3467
   6.000   1.1392   0.01549   0.00823  -0.1091  0.0266  0.9355  -3.6336   0.0000   0.0000   0.0000   0.3398
   6.500   1.1813   0.01728   0.01030  -0.1064  0.0248  1.0000  -3.8616   0.0000   0.0000   0.0000   0.3336
   7.000   1.2267   0.01957   0.01290  -0.1048  0.0247  1.0000  -4.1196   0.0000   0.0000   0.0000   0.3283
   7.500   1.2692   0.02283   0.01650  -0.1025  0.0248  1.0000  -4.6938   0.0000   0.0000   0.0000   0.3231
   8.000   1.3106   0.02695   0.02105  -0.1003  0.0248  1.0000  -5.3483   0.0000   0.0000   0.0000   0.3182
   8.500   1.3455   0.03244   0.02708  -0.0974  0.0249  1.0000  -5.9430   0.0000   0.0000   0.0000   0.3135
  10.000   1.4043   0.04866   0.04484  -0.0838  0.0256  1.0000  -7.5042   0.0000   0.0000   0.0000   0.2990
  10.500   1.3867   0.05592   0.05265  -0.0759  0.0256  1.0000  -7.6550   0.0000   0.0000   0.0000   0.2935
  11.000   1.3469   0.06267   0.05981  -0.0667  0.0256  1.0000  -7.6214   0.0000   0.0000   0.0000   0.2877
  11.500   1.3031   0.07115   0.06867  -0.0622  0.0256  1.0000  -7.5132   0.0000   0.0000   0.0000   0.2852
  12.000   1.2584   0.08214   0.08000  -0.0634  0.0257  1.0000  -7.3319   0.0000   0.0000   0.0000   0.2871
  12.500   1.2118   0.09776   0.09594  -0.0726  0.0261  1.0000  -6.9843   0.0000   0.0000   0.0000   0.2958
  13.000   1.0328   0.16891   0.16715  -0.1127  0.0372  1.0000  -3.1507   0.0000   0.0000   0.0000   0.3466
  13.500   1.0320   0.18161   0.17985  -0.1194  0.0369  1.0000  -3.0175   0.0000   0.0000   0.0000   0.3527
  14.000   1.0354   0.19321   0.19142  -0.1284  0.0308  1.0000  -2.8635   0.0000   0.0000   0.0000   0.3606
  14.500   1.0440   0.20119   0.19941  -0.1322  0.0286  1.0000  -3.0163   0.0000   0.0000   0.0000   0.3624
  15.000   1.0614   0.20504   0.20330  -0.1327  0.0266  1.0000  -3.5056   0.0000   0.0000   0.0000   0.3598
  15.500   1.0560   0.21952   0.21775  -0.1385  0.0249  1.0000  -3.2686   0.0000   0.0000   0.0000   0.3655


