xflr5 v6.57

 Calculated polar for: NACA-0009 9.0% smoothed

 1 1 Reynolds number fixed          Mach number fixed         

 xtrf =   1.000 (top)        1.000 (bottom)
 Mach =   0.000     Re =     0.250 e 6     Ncrit =   9.000

  alpha     CL        CD       CDp       Cm    Top Xtr Bot Xtr   Cpmin    Chinge    XCp    
 ------- -------- --------- --------- -------- ------- ------- -------- --------- ---------
 -11.000  -0.9392   0.04211   0.03756  -0.0345  1.0000  0.0099  -7.3054   0.0000   0.0000   0.0000   0.2034
 -10.750  -0.9602   0.03866   0.03380  -0.0304  1.0000  0.0101  -7.4258   0.0000   0.0000   0.0000   0.2088
 -10.500  -0.9745   0.03478   0.02953  -0.0266  1.0000  0.0105  -7.5347   0.0000   0.0000   0.0000   0.2134
 -10.250  -0.9741   0.03232   0.02682  -0.0238  1.0000  0.0113  -7.4451   0.0000   0.0000   0.0000   0.2165
 -10.000  -0.9623   0.03129   0.02569  -0.0220  1.0000  0.0123  -7.1804   0.0000   0.0000   0.0000   0.2184
  -9.750  -0.9498   0.03009   0.02434  -0.0202  1.0000  0.0136  -6.9390   0.0000   0.0000   0.0000   0.2203
  -9.500  -0.9377   0.02847   0.02248  -0.0181  1.0000  0.0150  -6.7420   0.0000   0.0000   0.0000   0.2225
  -9.250  -0.9237   0.02695   0.02068  -0.0162  1.0000  0.0163  -6.5318   0.0000   0.0000   0.0000   0.2246
  -9.000  -0.9137   0.02448   0.01791  -0.0137  1.0000  0.0181  -6.4048   0.0000   0.0000   0.0000   0.2274
  -8.750  -0.8971   0.02373   0.01715  -0.0121  1.0000  0.0212  -6.1029   0.0000   0.0000   0.0000   0.2292
  -8.500  -0.8755   0.02395   0.01722  -0.0110  1.0000  0.0256  -5.7309   0.0000   0.0000   0.0000   0.2303
  -8.250  -0.8586   0.02347   0.01676  -0.0097  1.0000  0.0309  -5.4020   0.0000   0.0000   0.0000   0.2320
  -8.000  -0.8373   0.02413   0.01740  -0.0086  1.0000  0.0363  -5.0239   0.0000   0.0000   0.0000   0.2333
  -7.750  -0.8209   0.02258   0.01566  -0.0069  1.0000  0.0409  -4.8360   0.0000   0.0000   0.0000   0.2354
  -7.500  -0.8010   0.02264   0.01578  -0.0058  1.0000  0.0456  -4.5497   0.0000   0.0000   0.0000   0.2368
  -7.250  -0.7804   0.02188   0.01487  -0.0044  1.0000  0.0490  -4.3340   0.0000   0.0000   0.0000   0.2386
  -7.000  -0.7593   0.02116   0.01396  -0.0030  1.0000  0.0510  -4.1195   0.0000   0.0000   0.0000   0.2405
  -6.750  -0.7407   0.01900   0.01165  -0.0014  1.0000  0.0544  -3.9536   0.0000   0.0000   0.0000   0.2427
  -6.500  -0.7205   0.01828   0.01094  -0.0002  1.0000  0.0586  -3.7188   0.0000   0.0000   0.0000   0.2446
  -6.250  -0.6993   0.01768   0.01027   0.0011  1.0000  0.0626  -3.4910   0.0000   0.0000   0.0000   0.2467
  -6.000  -0.6778   0.01700   0.00943   0.0024  1.0000  0.0654  -3.2659   0.0000   0.0000   0.0000   0.2489
  -5.750  -0.6571   0.01617   0.00850   0.0039  1.0000  0.0680  -3.0628   0.0000   0.0000   0.0000   0.2514
  -5.500  -0.6391   0.01503   0.00740   0.0057  1.0000  0.0732  -2.8770   0.0000   0.0000   0.0000   0.2546
  -5.250  -0.6186   0.01447   0.00683   0.0071  1.0000  0.0784  -2.6707   0.0000   0.0000   0.0000   0.2574
  -5.000  -0.5969   0.01413   0.00641   0.0084  1.0000  0.0840  -2.4609   0.0000   0.0000   0.0000   0.2601
  -4.750  -0.5789   0.01328   0.00563   0.0102  1.0000  0.0938  -2.2809   0.0000   0.0000   0.0000   0.2638
  -4.500  -0.5578   0.01287   0.00518   0.0116  1.0000  0.1030  -2.0866   0.0000   0.0000   0.0000   0.2671
  -4.250  -0.5387   0.01220   0.00463   0.0132  1.0000  0.1223  -1.9099   0.0000   0.0000   0.0000   0.2710
  -4.000  -0.5202   0.01148   0.00418   0.0149  1.0000  0.1688  -1.8102   0.0000   0.0000   0.0000   0.2752
  -3.750  -0.5024   0.01074   0.00387   0.0165  1.0000  0.2526  -1.7105   0.0000   0.0000   0.0000   0.2796
  -3.500  -0.4847   0.01012   0.00359   0.0182  1.0000  0.3337  -1.6107   0.0000   0.0000   0.0000   0.2845
  -3.250  -0.4666   0.00964   0.00347   0.0199  1.0000  0.4060  -1.5086   0.0000   0.0000   0.0000   0.2899
  -3.000  -0.4473   0.00930   0.00338   0.0216  1.0000  0.4669  -1.4050   0.0000   0.0000   0.0000   0.2955
  -2.750  -0.4278   0.00903   0.00332   0.0232  1.0000  0.5228  -1.3100   0.0000   0.0000   0.0000   0.3017
  -2.500  -0.4086   0.00879   0.00329   0.0250  1.0000  0.5802  -1.2279   0.0000   0.0000   0.0000   0.3087
  -2.250  -0.3901   0.00856   0.00330   0.0269  1.0000  0.6410  -1.1480   0.0000   0.0000   0.0000   0.3167
  -2.000  -0.3715   0.00837   0.00334   0.0289  1.0000  0.6997  -1.0692   0.0000   0.0000   0.0000   0.3257
  -1.750  -0.3524   0.00822   0.00341   0.0308  1.0000  0.7570  -0.9910   0.0000   0.0000   0.0000   0.3355
  -1.500  -0.3280   0.00813   0.00356   0.0319  0.9994  0.8240  -0.9052   0.0000   0.0000   0.0000   0.3453
  -1.250  -0.2786   0.00824   0.00382   0.0281  0.9970  0.9021  -0.7854   0.0000   0.0000   0.0000   0.3490
  -1.000  -0.2217   0.00847   0.00405   0.0224  0.9955  0.9365  -0.6696   0.0000   0.0000   0.0000   0.3492
  -0.750  -0.1648   0.00866   0.00420   0.0165  0.9936  0.9538  -0.5625   0.0000   0.0000   0.0000   0.3486
  -0.500  -0.1114   0.00882   0.00433   0.0114  0.9898  0.9658  -0.4638   0.0000   0.0000   0.0000   0.3502
  -0.250  -0.0545   0.00894   0.00443   0.0054  0.9864  0.9739  -0.3795   0.0000   0.0000   0.0000   0.3479
   0.000   0.0000   0.00901   0.00450  -0.0000  0.9812  0.9812  -0.3114   0.0000   0.0000   0.0000   0.3251
   0.250   0.0545   0.00894   0.00443  -0.0054  0.9739  0.9864  -0.3795   0.0000   0.0000   0.0000   0.3479
   0.500   0.1114   0.00881   0.00433  -0.0114  0.9658  0.9898  -0.4638   0.0000   0.0000   0.0000   0.3502
   0.750   0.1648   0.00866   0.00420  -0.0165  0.9538  0.9936  -0.5626   0.0000   0.0000   0.0000   0.3486
   1.000   0.2217   0.00847   0.00405  -0.0224  0.9365  0.9956  -0.6696   0.0000   0.0000   0.0000   0.3492
   1.250   0.2786   0.00824   0.00382  -0.0281  0.9021  0.9970  -0.7855   0.0000   0.0000   0.0000   0.3490
   1.500   0.3281   0.00812   0.00356  -0.0319  0.8240  0.9994  -0.9052   0.0000   0.0000   0.0000   0.3454
   1.750   0.3524   0.00822   0.00341  -0.0308  0.7571  1.0000  -0.9909   0.0000   0.0000   0.0000   0.3355
   2.000   0.3714   0.00837   0.00333  -0.0289  0.6998  1.0000  -1.0692   0.0000   0.0000   0.0000   0.3257
   2.250   0.3900   0.00856   0.00330  -0.0269  0.6410  1.0000  -1.1480   0.0000   0.0000   0.0000   0.3167
   2.500   0.4085   0.00879   0.00329  -0.0250  0.5802  1.0000  -1.2278   0.0000   0.0000   0.0000   0.3087
   2.750   0.4277   0.00903   0.00332  -0.0232  0.5228  1.0000  -1.3099   0.0000   0.0000   0.0000   0.3017
   3.000   0.4472   0.00930   0.00338  -0.0216  0.4671  1.0000  -1.4049   0.0000   0.0000   0.0000   0.2955
   3.250   0.4665   0.00963   0.00347  -0.0199  0.4061  1.0000  -1.5085   0.0000   0.0000   0.0000   0.2899
   3.500   0.4846   0.01012   0.00359  -0.0182  0.3337  1.0000  -1.6106   0.0000   0.0000   0.0000   0.2845
   3.750   0.5023   0.01074   0.00387  -0.0165  0.2527  1.0000  -1.7104   0.0000   0.0000   0.0000   0.2796
   4.000   0.5202   0.01148   0.00418  -0.0149  0.1689  1.0000  -1.8101   0.0000   0.0000   0.0000   0.2752
   4.250   0.5387   0.01220   0.00463  -0.0132  0.1223  1.0000  -1.9097   0.0000   0.0000   0.0000   0.2710
   4.500   0.5577   0.01287   0.00518  -0.0116  0.1030  1.0000  -2.0865   0.0000   0.0000   0.0000   0.2671
   4.750   0.5788   0.01328   0.00563  -0.0102  0.0938  1.0000  -2.2807   0.0000   0.0000   0.0000   0.2638
   5.000   0.5968   0.01413   0.00641  -0.0084  0.0840  1.0000  -2.4607   0.0000   0.0000   0.0000   0.2601
   5.250   0.6186   0.01447   0.00682  -0.0071  0.0784  1.0000  -2.6706   0.0000   0.0000   0.0000   0.2574
   5.500   0.6391   0.01503   0.00740  -0.0057  0.0732  1.0000  -2.8768   0.0000   0.0000   0.0000   0.2545
   5.750   0.6571   0.01617   0.00850  -0.0039  0.0680  1.0000  -3.0627   0.0000   0.0000   0.0000   0.2514
   6.000   0.6778   0.01700   0.00943  -0.0024  0.0654  1.0000  -3.2658   0.0000   0.0000   0.0000   0.2489
   6.250   0.6992   0.01768   0.01027  -0.0011  0.0626  1.0000  -3.4908   0.0000   0.0000   0.0000   0.2467
   6.500   0.7204   0.01828   0.01094   0.0002  0.0586  1.0000  -3.7187   0.0000   0.0000   0.0000   0.2446
   6.750   0.7407   0.01900   0.01165   0.0015  0.0544  1.0000  -3.9535   0.0000   0.0000   0.0000   0.2427
   7.000   0.7593   0.02116   0.01396   0.0030  0.0510  1.0000  -4.1194   0.0000   0.0000   0.0000   0.2405
   7.250   0.7804   0.02188   0.01487   0.0044  0.0490  1.0000  -4.3339   0.0000   0.0000   0.0000   0.2386
   7.500   0.8010   0.02264   0.01577   0.0058  0.0456  1.0000  -4.5497   0.0000   0.0000   0.0000   0.2368
   7.750   0.8209   0.02258   0.01566   0.0069  0.0409  1.0000  -4.8360   0.0000   0.0000   0.0000   0.2353
   8.000   0.8373   0.02413   0.01740   0.0086  0.0363  1.0000  -5.0240   0.0000   0.0000   0.0000   0.2333
   8.250   0.8586   0.02347   0.01675   0.0097  0.0309  1.0000  -5.4022   0.0000   0.0000   0.0000   0.2320
   8.500   0.8755   0.02395   0.01721   0.0110  0.0256  1.0000  -5.7312   0.0000   0.0000   0.0000   0.2303
   8.750   0.8972   0.02373   0.01715   0.0121  0.0212  1.0000  -6.1033   0.0000   0.0000   0.0000   0.2292
   9.000   0.9138   0.02448   0.01791   0.0136  0.0181  1.0000  -6.4049   0.0000   0.0000   0.0000   0.2274
   9.250   0.9238   0.02694   0.02068   0.0162  0.0163  1.0000  -6.5323   0.0000   0.0000   0.0000   0.2246
   9.500   0.9378   0.02847   0.02248   0.0181  0.0150  1.0000  -6.7425   0.0000   0.0000   0.0000   0.2225
   9.750   0.9499   0.03008   0.02434   0.0202  0.0136  1.0000  -6.9398   0.0000   0.0000   0.0000   0.2203
  10.000   0.9625   0.03128   0.02569   0.0220  0.0123  1.0000  -7.1816   0.0000   0.0000   0.0000   0.2184
  10.250   0.9743   0.03232   0.02682   0.0238  0.0113  1.0000  -7.4465   0.0000   0.0000   0.0000   0.2166
  10.500   0.9747   0.03480   0.02955   0.0265  0.0105  1.0000  -7.5347   0.0000   0.0000   0.0000   0.2135
  10.750   0.9603   0.03869   0.03384   0.0303  0.0100  1.0000  -7.4243   0.0000   0.0000   0.0000   0.2089
  11.000   0.9394   0.04216   0.03762   0.0344  0.0099  1.0000  -7.3030   0.0000   0.0000   0.0000   0.2035
  11.250   0.9186   0.04583   0.04156   0.0367  0.0099  1.0000  -7.1939   0.0000   0.0000   0.0000   0.1999
  11.500   0.8993   0.05002   0.04597   0.0365  0.0098  1.0000  -7.0960   0.0000   0.0000   0.0000   0.1988
  11.750   0.8820   0.05495   0.05110   0.0340  0.0099  1.0000  -7.0033   0.0000   0.0000   0.0000   0.2004
  12.000   0.8668   0.06095   0.05727   0.0295  0.0100  1.0000  -6.9029   0.0000   0.0000   0.0000   0.2045
  12.250   0.8527   0.06807   0.06454   0.0237  0.0101  1.0000  -6.7770   0.0000   0.0000   0.0000   0.2103
  12.500   0.8343   0.07734   0.07397   0.0167  0.0105  1.0000  -6.5306   0.0000   0.0000   0.0000   0.2178
  12.750   0.6826   0.12109   0.11769  -0.0053  0.0162  1.0000  -3.5065   0.0000   0.0000   0.0000   0.2472
  13.000   0.6742   0.12794   0.12451  -0.0081  0.0161  1.0000  -3.2751   0.0000   0.0000   0.0000   0.2514
  13.250   0.6688   0.13439   0.13093  -0.0107  0.0160  1.0000  -3.0717   0.0000   0.0000   0.0000   0.2553
  13.500   0.6654   0.14054   0.13705  -0.0131  0.0157  1.0000  -2.8854   0.0000   0.0000   0.0000   0.2590
  13.750   0.6636   0.14636   0.14285  -0.0154  0.0156  1.0000  -2.7191   0.0000   0.0000   0.0000   0.2624
  14.000   0.6633   0.15182   0.14829  -0.0175  0.0156  1.0000  -2.5768   0.0000   0.0000   0.0000   0.2654
  14.250   0.6640   0.15693   0.15339  -0.0194  0.0158  1.0000  -2.4611   0.0000   0.0000   0.0000   0.2681
  14.500   0.6654   0.16174   0.15818  -0.0210  0.0163  1.0000  -2.3765   0.0000   0.0000   0.0000   0.2703
  14.750   0.6645   0.17156   0.16802  -0.0218  0.0262  1.0000  -2.0023   0.0000   0.0000   0.0000   0.2716
  15.000   0.6686   0.17586   0.17231  -0.0236  0.0261  1.0000  -1.9505   0.0000   0.0000   0.0000   0.2741
  15.250   0.6722   0.17989   0.17632  -0.0259  0.0258  1.0000  -1.8857   0.0000   0.0000   0.0000   0.2770
  15.500   0.6727   0.18349   0.17990  -0.0296  0.0246  1.0000  -1.7515   0.0000   0.0000   0.0000   0.2823


