xflr5 v6.57

 Calculated polar for: NACA-0009 9.0% smoothed

 1 1 Reynolds number fixed          Mach number fixed         

 xtrf =   1.000 (top)        1.000 (bottom)
 Mach =   0.000     Re =     1.200 e 6     Ncrit =   9.000

  alpha     CL        CD       CDp       Cm    Top Xtr Bot Xtr   Cpmin    Chinge    XCp    
 ------- -------- --------- --------- -------- ------- ------- -------- --------- ---------
 -12.000  -1.1758   0.02448   0.02049  -0.0230  1.0000  0.0021  -12.0143   0.0000   0.0000   0.0000   0.2188
 -11.750  -1.1702   0.02281   0.01860  -0.0201  1.0000  0.0021  -11.7796   0.0000   0.0000   0.0000   0.2215
 -11.500  -1.1611   0.02137   0.01696  -0.0175  1.0000  0.0021  -11.4941   0.0000   0.0000   0.0000   0.2239
 -11.250  -1.1494   0.02011   0.01552  -0.0151  1.0000  0.0021  -11.1709   0.0000   0.0000   0.0000   0.2262
 -11.000  -1.1358   0.01900   0.01425  -0.0130  1.0000  0.0021  -10.8207   0.0000   0.0000   0.0000   0.2282
 -10.750  -1.1208   0.01801   0.01311  -0.0109  1.0000  0.0021  -10.4803   0.0000   0.0000   0.0000   0.2302
 -10.500  -1.1049   0.01709   0.01201  -0.0090  1.0000  0.0022  -10.1447   0.0000   0.0000   0.0000   0.2322
 -10.250  -1.0877   0.01629   0.01109  -0.0072  1.0000  0.0022  -9.7833   0.0000   0.0000   0.0000   0.2340
 -10.000  -1.0697   0.01556   0.01025  -0.0055  1.0000  0.0023  -9.4197   0.0000   0.0000   0.0000   0.2358
  -9.750  -1.0511   0.01489   0.00948  -0.0039  1.0000  0.0025  -9.0566   0.0000   0.0000   0.0000   0.2375
  -9.500  -1.0321   0.01428   0.00878  -0.0023  1.0000  0.0028  -8.6930   0.0000   0.0000   0.0000   0.2393
  -9.250  -1.0125   0.01374   0.00820  -0.0008  1.0000  0.0033  -8.3147   0.0000   0.0000   0.0000   0.2410
  -9.000  -0.9920   0.01331   0.00774   0.0005  1.0000  0.0039  -7.9052   0.0000   0.0000   0.0000   0.2426
  -8.750  -0.9706   0.01298   0.00737   0.0016  1.0000  0.0042  -7.4746   0.0000   0.0000   0.0000   0.2441
  -8.500  -0.9508   0.01244   0.00679   0.0032  1.0000  0.0062  -7.1224   0.0000   0.0000   0.0000   0.2461
  -8.250  -0.9309   0.01195   0.00631   0.0046  1.0000  0.0088  -6.7420   0.0000   0.0000   0.0000   0.2480
  -8.000  -0.9099   0.01159   0.00592   0.0059  1.0000  0.0112  -6.3453   0.0000   0.0000   0.0000   0.2498
  -7.750  -0.8893   0.01119   0.00557   0.0072  1.0000  0.0153  -5.9655   0.0000   0.0000   0.0000   0.2517
  -7.500  -0.8675   0.01093   0.00529   0.0084  1.0000  0.0168  -5.5837   0.0000   0.0000   0.0000   0.2535
  -7.250  -0.8457   0.01065   0.00500   0.0096  1.0000  0.0193  -5.2141   0.0000   0.0000   0.0000   0.2554
  -7.000  -0.8241   0.01036   0.00474   0.0108  1.0000  0.0224  -4.8586   0.0000   0.0000   0.0000   0.2574
  -6.750  -0.8020   0.01014   0.00452   0.0119  1.0000  0.0247  -4.5728   0.0000   0.0000   0.0000   0.2593
  -6.500  -0.7796   0.00996   0.00432   0.0129  1.0000  0.0260  -4.2916   0.0000   0.0000   0.0000   0.2614
  -6.250  -0.7571   0.00980   0.00414   0.0140  1.0000  0.0265  -4.0168   0.0000   0.0000   0.0000   0.2635
  -6.000  -0.7353   0.00954   0.00387   0.0152  1.0000  0.0294  -3.7588   0.0000   0.0000   0.0000   0.2659
  -5.750  -0.7047   0.00930   0.00368   0.0145  0.9991  0.0334  -3.4568   0.0000   0.0000   0.0000   0.2659
  -5.500  -0.6710   0.00912   0.00348   0.0131  0.9977  0.0366  -3.1486   0.0000   0.0000   0.0000   0.2651
  -5.250  -0.6370   0.00899   0.00335   0.0116  0.9964  0.0395  -2.8522   0.0000   0.0000   0.0000   0.2640
  -5.000  -0.6037   0.00871   0.00316   0.0103  0.9949  0.0481  -2.5735   0.0000   0.0000   0.0000   0.2630
  -4.750  -0.5708   0.00857   0.00302   0.0091  0.9928  0.0513  -2.3038   0.0000   0.0000   0.0000   0.2621
  -4.500  -0.5385   0.00829   0.00277   0.0081  0.9906  0.0594  -2.0544   0.0000   0.0000   0.0000   0.2614
  -4.250  -0.5044   0.00807   0.00259   0.0067  0.9883  0.0662  -1.8714   0.0000   0.0000   0.0000   0.2597
  -4.000  -0.4697   0.00780   0.00240   0.0051  0.9862  0.0818  -1.7237   0.0000   0.0000   0.0000   0.2574
  -3.750  -0.4360   0.00751   0.00219   0.0037  0.9846  0.1061  -1.5826   0.0000   0.0000   0.0000   0.2551
  -3.500  -0.4016   0.00714   0.00201   0.0020  0.9832  0.1459  -1.4420   0.0000   0.0000   0.0000   0.2519
  -3.250  -0.3759   0.00677   0.00182   0.0025  0.9780  0.1869  -1.3288   0.0000   0.0000   0.0000   0.2535
  -3.000  -0.3451   0.00646   0.00167   0.0018  0.9734  0.2284  -1.2251   0.0000   0.0000   0.0000   0.2521
  -2.750  -0.3126   0.00613   0.00152   0.0006  0.9694  0.2743  -1.1204   0.0000   0.0000   0.0000   0.2491
  -2.500  -0.2783   0.00580   0.00139  -0.0009  0.9661  0.3218  -1.0152   0.0000   0.0000   0.0000   0.2440
  -2.250  -0.2428   0.00543   0.00126  -0.0028  0.9628  0.3714  -0.9107   0.0000   0.0000   0.0000   0.2359
  -2.000  -0.2181   0.00514   0.00118  -0.0021  0.9535  0.4260  -0.8269   0.0000   0.0000   0.0000   0.2379
  -1.750  -0.1845   0.00493   0.00106  -0.0033  0.9426  0.4669  -0.7330   0.0000   0.0000   0.0000   0.2296
  -1.500  -0.1504   0.00471   0.00097  -0.0047  0.9309  0.5119  -0.6510   0.0000   0.0000   0.0000   0.2164
  -1.250  -0.1235   0.00451   0.00091  -0.0043  0.9129  0.5575  -0.5825   0.0000   0.0000   0.0000   0.2122
  -1.000  -0.0958   0.00435   0.00085  -0.0042  0.8895  0.6044  -0.5143   0.0000   0.0000   0.0000   0.2037
  -0.750  -0.0723   0.00417   0.00080  -0.0031  0.8608  0.6689  -0.4525   0.0000   0.0000   0.0000   0.2051
  -0.500  -0.0474   0.00410   0.00078  -0.0022  0.8365  0.7061  -0.4002   0.0000   0.0000   0.0000   0.2002
  -0.250  -0.0241   0.00408   0.00077  -0.0010  0.8017  0.7411  -0.3509   0.0000   0.0000   0.0000   0.2055
   0.000  -0.0000   0.00407   0.00075   0.0000  0.7714  0.7714  -0.3125   0.0000   0.0000   0.0000   0.4697
   0.250   0.0241   0.00408   0.00077   0.0010  0.7411  0.8017  -0.3509   0.0000   0.0000   0.0000   0.2055
   0.500   0.0474   0.00410   0.00078   0.0022  0.7060  0.8365  -0.4002   0.0000   0.0000   0.0000   0.2002
   0.750   0.0723   0.00417   0.00080   0.0031  0.6689  0.8608  -0.4525   0.0000   0.0000   0.0000   0.2051
   1.000   0.0958   0.00435   0.00085   0.0042  0.6045  0.8895  -0.5143   0.0000   0.0000   0.0000   0.2037
   1.250   0.1235   0.00451   0.00091   0.0043  0.5575  0.9129  -0.5825   0.0000   0.0000   0.0000   0.2122
   1.500   0.1504   0.00471   0.00097   0.0047  0.5119  0.9309  -0.6510   0.0000   0.0000   0.0000   0.2164
   1.750   0.1845   0.00493   0.00106   0.0033  0.4669  0.9426  -0.7330   0.0000   0.0000   0.0000   0.2296
   2.000   0.2181   0.00514   0.00118   0.0021  0.4260  0.9535  -0.8269   0.0000   0.0000   0.0000   0.2379
   2.500   0.2783   0.00580   0.00139   0.0009  0.3218  0.9661  -1.0152   0.0000   0.0000   0.0000   0.2440
   2.750   0.3126   0.00613   0.00152  -0.0006  0.2743  0.9694  -1.1204   0.0000   0.0000   0.0000   0.2492
   3.000   0.3452   0.00646   0.00167  -0.0018  0.2284  0.9734  -1.2251   0.0000   0.0000   0.0000   0.2522
   3.250   0.3759   0.00677   0.00182  -0.0025  0.1869  0.9780  -1.3288   0.0000   0.0000   0.0000   0.2535
   3.500   0.4016   0.00714   0.00201  -0.0020  0.1458  0.9832  -1.4421   0.0000   0.0000   0.0000   0.2519
   3.750   0.4360   0.00751   0.00219  -0.0037  0.1061  0.9846  -1.5826   0.0000   0.0000   0.0000   0.2552
   4.000   0.4698   0.00780   0.00240  -0.0051  0.0818  0.9862  -1.7237   0.0000   0.0000   0.0000   0.2574
   4.250   0.5044   0.00807   0.00259  -0.0067  0.0662  0.9883  -1.8714   0.0000   0.0000   0.0000   0.2597
   4.500   0.5386   0.00829   0.00277  -0.0081  0.0594  0.9906  -2.0545   0.0000   0.0000   0.0000   0.2614
   4.750   0.5708   0.00857   0.00302  -0.0091  0.0513  0.9928  -2.3039   0.0000   0.0000   0.0000   0.2622
   5.000   0.6038   0.00871   0.00316  -0.0103  0.0481  0.9949  -2.5737   0.0000   0.0000   0.0000   0.2630
   5.250   0.6371   0.00899   0.00335  -0.0116  0.0395  0.9964  -2.8524   0.0000   0.0000   0.0000   0.2641
   5.500   0.6711   0.00912   0.00348  -0.0131  0.0366  0.9977  -3.1488   0.0000   0.0000   0.0000   0.2651
   5.750   0.7047   0.00930   0.00368  -0.0145  0.0334  0.9991  -3.4571   0.0000   0.0000   0.0000   0.2660
   6.000   0.7352   0.00954   0.00387  -0.0152  0.0294  1.0000  -3.7585   0.0000   0.0000   0.0000   0.2659
   6.250   0.7571   0.00980   0.00414  -0.0140  0.0265  1.0000  -4.0165   0.0000   0.0000   0.0000   0.2635
   6.500   0.7796   0.00995   0.00432  -0.0129  0.0260  1.0000  -4.2913   0.0000   0.0000   0.0000   0.2614
   6.750   0.8020   0.01014   0.00452  -0.0119  0.0247  1.0000  -4.5725   0.0000   0.0000   0.0000   0.2593
   7.000   0.8240   0.01036   0.00474  -0.0107  0.0224  1.0000  -4.8584   0.0000   0.0000   0.0000   0.2573
   7.250   0.8457   0.01065   0.00500  -0.0096  0.0193  1.0000  -5.2138   0.0000   0.0000   0.0000   0.2554
   7.500   0.8674   0.01093   0.00528  -0.0084  0.0168  1.0000  -5.5834   0.0000   0.0000   0.0000   0.2535
   7.750   0.8893   0.01119   0.00557  -0.0072  0.0153  1.0000  -5.9652   0.0000   0.0000   0.0000   0.2517
   8.000   0.9098   0.01159   0.00592  -0.0059  0.0112  1.0000  -6.3450   0.0000   0.0000   0.0000   0.2498
   8.250   0.9309   0.01195   0.00631  -0.0046  0.0088  1.0000  -6.7418   0.0000   0.0000   0.0000   0.2480
   8.500   0.9508   0.01244   0.00679  -0.0032  0.0062  1.0000  -7.1222   0.0000   0.0000   0.0000   0.2461
   8.750   0.9706   0.01298   0.00737  -0.0016  0.0042  1.0000  -7.4743   0.0000   0.0000   0.0000   0.2441
   9.000   0.9919   0.01331   0.00773  -0.0005  0.0039  1.0000  -7.9051   0.0000   0.0000   0.0000   0.2426
   9.250   1.0125   0.01374   0.00819   0.0008  0.0033  1.0000  -8.3146   0.0000   0.0000   0.0000   0.2410
   9.500   1.0321   0.01428   0.00878   0.0023  0.0028  1.0000  -8.6929   0.0000   0.0000   0.0000   0.2393
   9.750   1.0511   0.01489   0.00948   0.0039  0.0025  1.0000  -9.0566   0.0000   0.0000   0.0000   0.2375
  10.000   1.0697   0.01556   0.01025   0.0055  0.0023  1.0000  -9.4197   0.0000   0.0000   0.0000   0.2358
  10.250   1.0877   0.01629   0.01109   0.0072  0.0022  1.0000  -9.7834   0.0000   0.0000   0.0000   0.2340
  10.500   1.1049   0.01709   0.01201   0.0090  0.0022  1.0000  -10.1449   0.0000   0.0000   0.0000   0.2322
  10.750   1.1209   0.01801   0.01311   0.0109  0.0021  1.0000  -10.4807   0.0000   0.0000   0.0000   0.2302
  11.000   1.1359   0.01900   0.01425   0.0129  0.0021  1.0000  -10.8213   0.0000   0.0000   0.0000   0.2283
  11.250   1.1495   0.02011   0.01552   0.0151  0.0021  1.0000  -11.1717   0.0000   0.0000   0.0000   0.2262
  11.500   1.1612   0.02137   0.01696   0.0174  0.0021  1.0000  -11.4951   0.0000   0.0000   0.0000   0.2240
  11.750   1.1703   0.02281   0.01860   0.0200  0.0021  1.0000  -11.7809   0.0000   0.0000   0.0000   0.2215
  12.000   1.1760   0.02449   0.02049   0.0230  0.0021  1.0000  -12.0158   0.0000   0.0000   0.0000   0.2188
  12.250   1.1770   0.02643   0.02268   0.0263  0.0021  1.0000  -12.1855   0.0000   0.0000   0.0000   0.2157
  12.500   1.1710   0.02854   0.02502   0.0304  0.0022  1.0000  -12.2763   0.0000   0.0000   0.0000   0.2117
  12.750   1.1581   0.03074   0.02744   0.0351  0.0022  1.0000  -12.2984   0.0000   0.0000   0.0000   0.2070
  13.000   1.1428   0.03351   0.03043   0.0384  0.0022  1.0000  -12.2768   0.0000   0.0000   0.0000   0.2033
  13.250   1.1250   0.03702   0.03417   0.0399  0.0023  1.0000  -12.2112   0.0000   0.0000   0.0000   0.2010
  13.500   1.1056   0.04163   0.03899   0.0389  0.0023  1.0000  -12.1031   0.0000   0.0000   0.0000   0.2008
  13.750   1.0853   0.04783   0.04539   0.0349  0.0023  1.0000  -11.9475   0.0000   0.0000   0.0000   0.2032
  14.000   1.0643   0.05593   0.05367   0.0284  0.0023  1.0000  -11.7302   0.0000   0.0000   0.0000   0.2082
  14.250   1.0412   0.06562   0.06353   0.0210  0.0023  1.0000  -11.4340   0.0000   0.0000   0.0000   0.2143
  14.500   1.0141   0.07592   0.07394   0.0145  0.0023  1.0000  -11.0547   0.0000   0.0000   0.0000   0.2198
  14.750   0.9829   0.08670   0.08481   0.0087  0.0023  1.0000  -10.5821   0.0000   0.0000   0.0000   0.2250
  15.000   0.9483   0.09783   0.09600   0.0031  0.0023  1.0000  -10.0183   0.0000   0.0000   0.0000   0.2304
  15.250   0.9107   0.10955   0.10778  -0.0026  0.0023  1.0000  -9.3437   0.0000   0.0000   0.0000   0.2365
  15.500   0.8696   0.12185   0.12013  -0.0085  0.0023  1.0000  -8.5375   0.0000   0.0000   0.0000   0.2435


