xflr5 v6.57

 Calculated polar for: NACA-0009 9.0% smoothed

 1 1 Reynolds number fixed          Mach number fixed         

 xtrf =   1.000 (top)        1.000 (bottom)
 Mach =   0.000     Re =     0.100 e 6     Ncrit =   9.000

  alpha     CL        CD       CDp       Cm    Top Xtr Bot Xtr   Cpmin    Chinge    XCp    
 ------- -------- --------- --------- -------- ------- ------- -------- --------- ---------
 -10.750  -0.6199   0.11573   0.11056   0.0053  1.0000  0.1362  -2.0452   0.0000   0.0000   0.0000   0.2516
 -10.500  -0.6315   0.11220   0.10709   0.0018  1.0000  0.1429  -2.1331   0.0000   0.0000   0.0000   0.2461
 -10.000  -0.6491   0.10208   0.09711  -0.0031  1.0000  0.1500  -2.2804   0.0000   0.0000   0.0000   0.2388
  -9.750  -0.6283   0.09901   0.09388  -0.0001  1.0000  0.1566  -2.1878   0.0000   0.0000   0.0000   0.2437
  -9.500  -0.6330   0.09505   0.08996  -0.0019  1.0000  0.1627  -2.2259   0.0000   0.0000   0.0000   0.2411
  -9.250  -0.6790   0.09054   0.08572  -0.0115  1.0000  0.1688  -2.4490   0.0000   0.0000   0.0000   0.2275
  -9.000  -0.7269   0.08822   0.08338  -0.0149  1.0000  0.1700  -2.6059   0.0000   0.0000   0.0000   0.2244
  -8.750  -0.6725   0.08009   0.07523  -0.0102  1.0000  0.1765  -2.4341   0.0000   0.0000   0.0000   0.2297
  -8.500  -0.6817   0.07557   0.07073  -0.0111  1.0000  0.1784  -2.4746   0.0000   0.0000   0.0000   0.2289
  -8.250  -0.6999   0.07023   0.06547  -0.0129  1.0000  0.1784  -2.5742   0.0000   0.0000   0.0000   0.2269
  -8.000  -0.7939   0.04356   0.03692  -0.0168  1.0000  0.0775  -3.8474   0.0000   0.0000   0.0000   0.2231
  -7.750  -0.7883   0.03970   0.03254  -0.0142  1.0000  0.0792  -3.8822   0.0000   0.0000   0.0000   0.2264
  -7.500  -0.7783   0.03662   0.02892  -0.0116  1.0000  0.0815  -3.8638   0.0000   0.0000   0.0000   0.2296
  -7.250  -0.7668   0.03413   0.02589  -0.0091  1.0000  0.0853  -3.7979   0.0000   0.0000   0.0000   0.2328
  -7.000  -0.7498   0.03183   0.02365  -0.0080  1.0000  0.0921  -3.6176   0.0000   0.0000   0.0000   0.2341
  -6.750  -0.7315   0.02968   0.02119  -0.0063  1.0000  0.0955  -3.4912   0.0000   0.0000   0.0000   0.2364
  -6.500  -0.7116   0.02771   0.01886  -0.0045  1.0000  0.0990  -3.3548   0.0000   0.0000   0.0000   0.2387
  -6.250  -0.6904   0.02620   0.01689  -0.0029  1.0000  0.1025  -3.1891   0.0000   0.0000   0.0000   0.2410
  -6.000  -0.6685   0.02382   0.01443  -0.0019  1.0000  0.1080  -3.0241   0.0000   0.0000   0.0000   0.2425
  -5.750  -0.6473   0.02285   0.01346  -0.0008  1.0000  0.1172  -2.8256   0.0000   0.0000   0.0000   0.2444
  -5.500  -0.6245   0.02187   0.01227   0.0006  1.0000  0.1242  -2.6463   0.0000   0.0000   0.0000   0.2466
  -5.250  -0.6024   0.02009   0.01063   0.0016  1.0000  0.1338  -2.4697   0.0000   0.0000   0.0000   0.2486
  -5.000  -0.5802   0.01918   0.00962   0.0030  1.0000  0.1455  -2.2921   0.0000   0.0000   0.0000   0.2512
  -4.750  -0.5607   0.01795   0.00859   0.0046  1.0000  0.1635  -2.1228   0.0000   0.0000   0.0000   0.2544
  -4.500  -0.5416   0.01696   0.00773   0.0063  1.0000  0.1951  -1.9585   0.0000   0.0000   0.0000   0.2580
  -4.250  -0.5274   0.01548   0.00688   0.0087  1.0000  0.2643  -1.8336   0.0000   0.0000   0.0000   0.2631
  -4.000  -0.5157   0.01419   0.00640   0.0117  1.0000  0.3874  -1.7589   0.0000   0.0000   0.0000   0.2695
  -3.750  -0.5005   0.01352   0.00618   0.0145  1.0000  0.4898  -1.6664   0.0000   0.0000   0.0000   0.2758
  -3.500  -0.4834   0.01305   0.00591   0.0171  1.0000  0.5716  -1.5699   0.0000   0.0000   0.0000   0.2824
  -3.250  -0.4645   0.01268   0.00583   0.0196  1.0000  0.6430  -1.4677   0.0000   0.0000   0.0000   0.2894
  -3.000  -0.4437   0.01244   0.00582   0.0219  1.0000  0.7111  -1.3618   0.0000   0.0000   0.0000   0.2968
  -2.750  -0.4191   0.01237   0.00591   0.0238  1.0000  0.7784  -1.2648   0.0000   0.0000   0.0000   0.3043
  -2.500  -0.3884   0.01252   0.00614   0.0248  1.0000  0.8441  -1.1620   0.0000   0.0000   0.0000   0.3115
  -2.250  -0.3427   0.01298   0.00654   0.0230  1.0000  0.8989  -1.0349   0.0000   0.0000   0.0000   0.3148
  -2.000  -0.2818   0.01348   0.00686   0.0177  1.0000  0.9333  -0.8873   0.0000   0.0000   0.0000   0.3103
  -1.750  -0.2006   0.01381   0.00689   0.0078  1.0000  0.9524  -0.7251   0.0000   0.0000   0.0000   0.2860
  -1.500  -0.1326   0.01384   0.00675  -0.0002  1.0000  0.9725  -0.6030   0.0000   0.0000   0.0000   0.2453
  -1.250  -0.0641   0.01365   0.00643  -0.0087  1.0000  0.9908  -0.4850   0.0000   0.0000   0.0000   0.1093
  -1.000  -0.0204   0.01330   0.00602  -0.0130  1.0000  1.0000  -0.4116   0.0000   0.0000   0.0000  -0.4010
  -0.750  -0.0143   0.01302   0.00574  -0.0102  1.0000  1.0000  -0.3828   0.0000   0.0000   0.0000  -0.4738
  -0.500  -0.0088   0.01282   0.00555  -0.0070  1.0000  1.0000  -0.3544   0.0000   0.0000   0.0000  -0.5559
  -0.250  -0.0041   0.01270   0.00544  -0.0036  1.0000  1.0000  -0.3267   0.0000   0.0000   0.0000  -0.6298
   0.000  -0.0000   0.01266   0.00541   0.0000  1.0000  1.0000  -0.3119   0.0000   0.0000   0.0000   0.3984
   0.250   0.0041   0.01270   0.00544   0.0036  1.0000  1.0000  -0.3267   0.0000   0.0000   0.0000  -0.6293
   0.500   0.0088   0.01282   0.00555   0.0070  1.0000  1.0000  -0.3544   0.0000   0.0000   0.0000  -0.5552
   0.750   0.0143   0.01302   0.00574   0.0102  1.0000  1.0000  -0.3828   0.0000   0.0000   0.0000  -0.4728
   1.000   0.0204   0.01330   0.00602   0.0130  1.0000  1.0000  -0.4116   0.0000   0.0000   0.0000  -0.3999
   1.250   0.0640   0.01364   0.00643   0.0087  0.9908  1.0000  -0.4849   0.0000   0.0000   0.0000   0.1089
   1.500   0.1325   0.01383   0.00675   0.0002  0.9725  1.0000  -0.6029   0.0000   0.0000   0.0000   0.2452
   1.750   0.2006   0.01381   0.00688  -0.0078  0.9524  1.0000  -0.7251   0.0000   0.0000   0.0000   0.2860
   2.000   0.2817   0.01348   0.00686  -0.0177  0.9333  1.0000  -0.8871   0.0000   0.0000   0.0000   0.3102
   2.250   0.3426   0.01298   0.00654  -0.0230  0.8990  1.0000  -1.0348   0.0000   0.0000   0.0000   0.3148
   2.500   0.3884   0.01252   0.00614  -0.0248  0.8441  1.0000  -1.1619   0.0000   0.0000   0.0000   0.3115
   2.750   0.4190   0.01237   0.00591  -0.0238  0.7784  1.0000  -1.2647   0.0000   0.0000   0.0000   0.3043
   3.000   0.4436   0.01244   0.00582  -0.0219  0.7111  1.0000  -1.3617   0.0000   0.0000   0.0000   0.2968
   3.250   0.4645   0.01268   0.00583  -0.0196  0.6431  1.0000  -1.4676   0.0000   0.0000   0.0000   0.2894
   3.500   0.4833   0.01305   0.00591  -0.0171  0.5717  1.0000  -1.5699   0.0000   0.0000   0.0000   0.2824
   3.750   0.5004   0.01352   0.00618  -0.0145  0.4897  1.0000  -1.6663   0.0000   0.0000   0.0000   0.2758
   4.000   0.5157   0.01419   0.00640  -0.0117  0.3875  1.0000  -1.7588   0.0000   0.0000   0.0000   0.2695
   4.250   0.5273   0.01548   0.00688  -0.0087  0.2644  1.0000  -1.8335   0.0000   0.0000   0.0000   0.2631
   4.500   0.5416   0.01695   0.00773  -0.0063  0.1951  1.0000  -1.9584   0.0000   0.0000   0.0000   0.2580
   4.750   0.5607   0.01795   0.00859  -0.0046  0.1636  1.0000  -2.1227   0.0000   0.0000   0.0000   0.2544
   5.000   0.5802   0.01917   0.00962  -0.0030  0.1455  1.0000  -2.2920   0.0000   0.0000   0.0000   0.2512
   5.250   0.6024   0.02009   0.01063  -0.0016  0.1338  1.0000  -2.4696   0.0000   0.0000   0.0000   0.2486
   5.500   0.6244   0.02186   0.01226  -0.0006  0.1242  1.0000  -2.6463   0.0000   0.0000   0.0000   0.2466
   5.750   0.6473   0.02285   0.01346   0.0008  0.1172  1.0000  -2.8256   0.0000   0.0000   0.0000   0.2444
   6.000   0.6685   0.02381   0.01443   0.0019  0.1080  1.0000  -3.0240   0.0000   0.0000   0.0000   0.2425
   6.250   0.6904   0.02620   0.01689   0.0029  0.1025  1.0000  -3.1891   0.0000   0.0000   0.0000   0.2410
   6.500   0.7116   0.02771   0.01886   0.0045  0.0990  1.0000  -3.3548   0.0000   0.0000   0.0000   0.2387
   6.750   0.7314   0.02968   0.02119   0.0063  0.0955  1.0000  -3.4912   0.0000   0.0000   0.0000   0.2364
   7.000   0.7498   0.03182   0.02365   0.0080  0.0921  1.0000  -3.6176   0.0000   0.0000   0.0000   0.2341
   7.250   0.7668   0.03413   0.02589   0.0091  0.0853  1.0000  -3.7979   0.0000   0.0000   0.0000   0.2328
   7.500   0.7783   0.03662   0.02892   0.0116  0.0815  1.0000  -3.8638   0.0000   0.0000   0.0000   0.2296
   7.750   0.7883   0.03970   0.03255   0.0142  0.0792  1.0000  -3.8822   0.0000   0.0000   0.0000   0.2264
   8.000   0.7939   0.04357   0.03692   0.0168  0.0775  1.0000  -3.8474   0.0000   0.0000   0.0000   0.2231
   8.250   0.7944   0.04801   0.04185   0.0194  0.0766  1.0000  -3.7684   0.0000   0.0000   0.0000   0.2197
   8.500   0.8086   0.04937   0.04294   0.0201  0.0657  1.0000  -3.9881   0.0000   0.0000   0.0000   0.2190
   8.750   0.8031   0.05260   0.04674   0.0229  0.0619  1.0000  -3.8915   0.0000   0.0000   0.0000   0.2152
   9.000   0.7923   0.05746   0.05194   0.0249  0.0615  1.0000  -3.7636   0.0000   0.0000   0.0000   0.2122
   9.250   0.7769   0.06245   0.05718   0.0263  0.0619  1.0000  -3.6465   0.0000   0.0000   0.0000   0.2096
   9.500   0.7582   0.06728   0.06217   0.0271  0.0629  1.0000  -3.5320   0.0000   0.0000   0.0000   0.2075
   9.750   0.7378   0.07189   0.06685   0.0275  0.0639  1.0000  -3.4281   0.0000   0.0000   0.0000   0.2058
  10.000   0.7202   0.07728   0.07226   0.0258  0.0651  1.0000  -3.3252   0.0000   0.0000   0.0000   0.2069
  10.250   0.6595   0.10893   0.10396   0.0046  0.1454  1.0000  -2.2833   0.0000   0.0000   0.0000   0.2366
  10.500   0.6318   0.11220   0.10708  -0.0023  0.1426  1.0000  -2.1280   0.0000   0.0000   0.0000   0.2469
  10.750   0.6218   0.11579   0.11061  -0.0056  0.1358  1.0000  -2.0471   0.0000   0.0000   0.0000   0.2520
  11.000   0.6399   0.11958   0.11444  -0.0021  0.1219  1.0000  -2.1216   0.0000   0.0000   0.0000   0.2461
  11.250   0.6259   0.12330   0.11808  -0.0069  0.1177  1.0000  -2.0044   0.0000   0.0000   0.0000   0.2535
  11.500   0.6338   0.12629   0.12108  -0.0066  0.1081  1.0000  -2.0044   0.0000   0.0000   0.0000   0.2527
  11.750   0.6601   0.13375   0.12859  -0.0014  0.1030  1.0000  -2.1383   0.0000   0.0000   0.0000   0.2444
  12.000   0.6455   0.13691   0.13167  -0.0066  0.1020  1.0000  -1.9962   0.0000   0.0000   0.0000   0.2522
  12.250   0.6300   0.13957   0.13425  -0.0120  0.0984  1.0000  -1.8477   0.0000   0.0000   0.0000   0.2607
  12.500   0.6290   0.14320   0.13785  -0.0141  0.0938  1.0000  -1.8124   0.0000   0.0000   0.0000   0.2638
  12.750   0.6350   0.14687   0.14152  -0.0147  0.0898  1.0000  -1.8385   0.0000   0.0000   0.0000   0.2644
  13.000   0.6561   0.15135   0.14604  -0.0121  0.0860  1.0000  -1.9996   0.0000   0.0000   0.0000   0.2594
  13.250   0.6690   0.15987   0.15457  -0.0107  0.0840  1.0000  -2.0656   0.0000   0.0000   0.0000   0.2570
  13.500   0.6623   0.16269   0.15733  -0.0146  0.0835  1.0000  -1.9651   0.0000   0.0000   0.0000   0.2627
  13.750   0.6511   0.16434   0.15892  -0.0195  0.0820  1.0000  -1.8276   0.0000   0.0000   0.0000   0.2704
  14.000   0.6472   0.16684   0.16138  -0.0227  0.0787  1.0000  -1.7523   0.0000   0.0000   0.0000   0.2753
  14.250   0.6507   0.17032   0.16484  -0.0244  0.0754  1.0000  -1.7369   0.0000   0.0000   0.0000   0.2775
  14.500   0.6568   0.17391   0.16843  -0.0255  0.0725  1.0000  -1.7485   0.0000   0.0000   0.0000   0.2785
  14.750   0.6844   0.18359   0.17816  -0.0211  0.0667  1.0000  -1.9569   0.0000   0.0000   0.0000   0.2704
  15.000   0.6788   0.18520   0.17971  -0.0252  0.0660  1.0000  -1.8422   0.0000   0.0000   0.0000   0.2765
  15.250   0.6718   0.18578   0.18025  -0.0294  0.0642  1.0000  -1.7224   0.0000   0.0000   0.0000   0.2828
  15.500   0.6746   0.18811   0.18256  -0.0319  0.0586  1.0000  -1.6829   0.0000   0.0000   0.0000   0.2860


