xflr5 v6.57

 Calculated polar for: NACA-0009 9.0% smoothed

 1 1 Reynolds number fixed          Mach number fixed         

 xtrf =   1.000 (top)        1.000 (bottom)
 Mach =   0.000     Re =     0.500 e 6     Ncrit =   9.000

  alpha     CL        CD       CDp       Cm    Top Xtr Bot Xtr   Cpmin    Chinge    XCp    
 ------- -------- --------- --------- -------- ------- ------- -------- --------- ---------
 -11.000  -1.0166   0.03220   0.02794  -0.0281  1.0000  0.0042  -8.5183   0.0000   0.0000   0.0000   0.2124
 -10.750  -1.0162   0.03006   0.02555  -0.0251  1.0000  0.0042  -8.3922   0.0000   0.0000   0.0000   0.2155
 -10.250  -1.0195   0.02441   0.01918  -0.0179  1.0000  0.0045  -8.3404   0.0000   0.0000   0.0000   0.2232
 -10.000  -1.0204   0.02146   0.01579  -0.0138  1.0000  0.0050  -8.3821   0.0000   0.0000   0.0000   0.2275
  -9.750  -1.0107   0.01972   0.01383  -0.0110  1.0000  0.0060  -8.2362   0.0000   0.0000   0.0000   0.2304
  -9.500  -0.9936   0.01885   0.01288  -0.0093  1.0000  0.0071  -7.9182   0.0000   0.0000   0.0000   0.2322
  -9.250  -0.9750   0.01814   0.01209  -0.0079  1.0000  0.0082  -7.5779   0.0000   0.0000   0.0000   0.2339
  -9.000  -0.9558   0.01750   0.01135  -0.0064  1.0000  0.0092  -7.2308   0.0000   0.0000   0.0000   0.2355
  -8.750  -0.9409   0.01629   0.01003  -0.0041  1.0000  0.0124  -6.9905   0.0000   0.0000   0.0000   0.2381
  -8.500  -0.9195   0.01590   0.00965  -0.0030  1.0000  0.0167  -6.6226   0.0000   0.0000   0.0000   0.2395
  -8.250  -0.8998   0.01531   0.00902  -0.0016  1.0000  0.0209  -6.2612   0.0000   0.0000   0.0000   0.2412
  -8.000  -0.8771   0.01510   0.00880  -0.0007  1.0000  0.0240  -5.8688   0.0000   0.0000   0.0000   0.2425
  -7.750  -0.8542   0.01491   0.00856   0.0002  1.0000  0.0258  -5.4853   0.0000   0.0000   0.0000   0.2438
  -7.500  -0.8331   0.01451   0.00810   0.0014  1.0000  0.0274  -5.1429   0.0000   0.0000   0.0000   0.2455
  -7.250  -0.8134   0.01396   0.00754   0.0029  1.0000  0.0309  -4.8784   0.0000   0.0000   0.0000   0.2476
  -7.000  -0.7907   0.01376   0.00735   0.0038  1.0000  0.0339  -4.5851   0.0000   0.0000   0.0000   0.2491
  -6.750  -0.7667   0.01375   0.00733   0.0045  1.0000  0.0369  -4.2850   0.0000   0.0000   0.0000   0.2505
  -6.500  -0.7455   0.01340   0.00695   0.0057  1.0000  0.0402  -4.0215   0.0000   0.0000   0.0000   0.2524
  -6.250  -0.7245   0.01303   0.00662   0.0069  1.0000  0.0448  -3.7627   0.0000   0.0000   0.0000   0.2546
  -6.000  -0.7021   0.01285   0.00643   0.0079  1.0000  0.0482  -3.5005   0.0000   0.0000   0.0000   0.2565
  -5.750  -0.6800   0.01260   0.00609   0.0091  1.0000  0.0505  -3.2496   0.0000   0.0000   0.0000   0.2588
  -5.500  -0.6587   0.01226   0.00570   0.0104  1.0000  0.0521  -3.0220   0.0000   0.0000   0.0000   0.2614
  -5.250  -0.6408   0.01150   0.00491   0.0123  1.0000  0.0577  -2.8294   0.0000   0.0000   0.0000   0.2650
  -5.000  -0.6195   0.01117   0.00458   0.0136  1.0000  0.0622  -2.6113   0.0000   0.0000   0.0000   0.2680
  -4.750  -0.5976   0.01094   0.00431   0.0148  1.0000  0.0660  -2.3957   0.0000   0.0000   0.0000   0.2710
  -4.500  -0.5770   0.01053   0.00390   0.0162  1.0000  0.0735  -2.1972   0.0000   0.0000   0.0000   0.2745
  -4.250  -0.5557   0.01025   0.00365   0.0175  1.0000  0.0824  -1.9958   0.0000   0.0000   0.0000   0.2779
  -4.000  -0.5347   0.00989   0.00337   0.0188  1.0000  0.0983  -1.8622   0.0000   0.0000   0.0000   0.2818
  -3.750  -0.5141   0.00951   0.00315   0.0201  1.0000  0.1298  -1.7524   0.0000   0.0000   0.0000   0.2858
  -3.500  -0.4942   0.00906   0.00296   0.0214  1.0000  0.1844  -1.6449   0.0000   0.0000   0.0000   0.2903
  -3.000  -0.4260   0.00821   0.00266   0.0180  0.9943  0.3184  -1.3692   0.0000   0.0000   0.0000   0.2894
  -2.750  -0.3922   0.00777   0.00255   0.0164  0.9900  0.3883  -1.2558   0.0000   0.0000   0.0000   0.2891
  -2.500  -0.3571   0.00744   0.00248   0.0146  0.9862  0.4542  -1.1464   0.0000   0.0000   0.0000   0.2884
  -2.250  -0.3187   0.00718   0.00243   0.0122  0.9831  0.5108  -1.0335   0.0000   0.0000   0.0000   0.2859
  -2.000  -0.2888   0.00686   0.00231   0.0118  0.9762  0.5641  -0.9375   0.0000   0.0000   0.0000   0.2886
  -1.750  -0.2551   0.00655   0.00224   0.0106  0.9703  0.6261  -0.8384   0.0000   0.0000   0.0000   0.2894
  -1.500  -0.2186   0.00627   0.00214   0.0089  0.9658  0.6806  -0.7409   0.0000   0.0000   0.0000   0.2885
  -1.250  -0.1812   0.00599   0.00211   0.0071  0.9625  0.7470  -0.6553   0.0000   0.0000   0.0000   0.2868
  -1.000  -0.1563   0.00575   0.00207   0.0081  0.9531  0.8027  -0.5888   0.0000   0.0000   0.0000   0.3001
  -0.750  -0.1203   0.00557   0.00203   0.0068  0.9452  0.8409  -0.5100   0.0000   0.0000   0.0000   0.3046
  -0.500  -0.0790   0.00545   0.00200   0.0043  0.9384  0.8705  -0.4321   0.0000   0.0000   0.0000   0.3022
  -0.250  -0.0414   0.00540   0.00198   0.0025  0.9288  0.8962  -0.3678   0.0000   0.0000   0.0000   0.3092
   0.000   0.0000   0.00539   0.00199  -0.0000  0.9140  0.9140  -0.3125   0.0000   0.0000   0.0000   0.4885
   0.250   0.0414   0.00540   0.00198  -0.0025  0.8962  0.9288  -0.3678   0.0000   0.0000   0.0000   0.3092
   0.500   0.0790   0.00545   0.00200  -0.0043  0.8705  0.9385  -0.4321   0.0000   0.0000   0.0000   0.3022
   0.750   0.1203   0.00557   0.00203  -0.0068  0.8409  0.9452  -0.5100   0.0000   0.0000   0.0000   0.3046
   1.000   0.1563   0.00575   0.00207  -0.0081  0.8027  0.9532  -0.5888   0.0000   0.0000   0.0000   0.3001
   1.250   0.1812   0.00599   0.00211  -0.0071  0.7470  0.9625  -0.6553   0.0000   0.0000   0.0000   0.2868
   1.500   0.2186   0.00627   0.00214  -0.0089  0.6805  0.9658  -0.7409   0.0000   0.0000   0.0000   0.2885
   1.750   0.2551   0.00655   0.00224  -0.0106  0.6261  0.9703  -0.8384   0.0000   0.0000   0.0000   0.2894
   2.000   0.2888   0.00686   0.00231  -0.0118  0.5641  0.9762  -0.9375   0.0000   0.0000   0.0000   0.2886
   2.250   0.3187   0.00718   0.00243  -0.0122  0.5108  0.9831  -1.0335   0.0000   0.0000   0.0000   0.2859
   2.500   0.3572   0.00744   0.00248  -0.0146  0.4541  0.9862  -1.1464   0.0000   0.0000   0.0000   0.2884
   2.750   0.3922   0.00777   0.00255  -0.0164  0.3883  0.9900  -1.2558   0.0000   0.0000   0.0000   0.2891
   3.000   0.4260   0.00821   0.00266  -0.0180  0.3184  0.9943  -1.3693   0.0000   0.0000   0.0000   0.2894
   3.500   0.4942   0.00906   0.00296  -0.0214  0.1845  1.0000  -1.6447   0.0000   0.0000   0.0000   0.2902
   3.750   0.5140   0.00951   0.00315  -0.0200  0.1299  1.0000  -1.7523   0.0000   0.0000   0.0000   0.2858
   4.000   0.5347   0.00989   0.00337  -0.0188  0.0983  1.0000  -1.8621   0.0000   0.0000   0.0000   0.2817
   4.250   0.5556   0.01024   0.00365  -0.0174  0.0824  1.0000  -1.9956   0.0000   0.0000   0.0000   0.2779
   4.500   0.5770   0.01053   0.00390  -0.0162  0.0735  1.0000  -2.1970   0.0000   0.0000   0.0000   0.2745
   4.750   0.5976   0.01093   0.00431  -0.0148  0.0660  1.0000  -2.3955   0.0000   0.0000   0.0000   0.2709
   5.000   0.6195   0.01117   0.00458  -0.0136  0.0622  1.0000  -2.6111   0.0000   0.0000   0.0000   0.2680
   5.250   0.6407   0.01150   0.00491  -0.0123  0.0577  1.0000  -2.8292   0.0000   0.0000   0.0000   0.2650
   5.500   0.6587   0.01226   0.00570  -0.0104  0.0521  1.0000  -3.0218   0.0000   0.0000   0.0000   0.2614
   5.750   0.6800   0.01260   0.00609  -0.0091  0.0505  1.0000  -3.2494   0.0000   0.0000   0.0000   0.2588
   6.000   0.7020   0.01285   0.00643  -0.0079  0.0482  1.0000  -3.5003   0.0000   0.0000   0.0000   0.2565
   6.250   0.7245   0.01303   0.00662  -0.0069  0.0448  1.0000  -3.7625   0.0000   0.0000   0.0000   0.2546
   6.500   0.7454   0.01340   0.00695  -0.0057  0.0402  1.0000  -4.0213   0.0000   0.0000   0.0000   0.2524
   6.750   0.7667   0.01375   0.00733  -0.0045  0.0369  1.0000  -4.2848   0.0000   0.0000   0.0000   0.2504
   7.000   0.7907   0.01376   0.00735  -0.0038  0.0339  1.0000  -4.5849   0.0000   0.0000   0.0000   0.2491
   7.250   0.8134   0.01396   0.00754  -0.0029  0.0309  1.0000  -4.8783   0.0000   0.0000   0.0000   0.2476
   7.500   0.8331   0.01451   0.00810  -0.0014  0.0274  1.0000  -5.1428   0.0000   0.0000   0.0000   0.2455
   7.750   0.8542   0.01491   0.00856  -0.0002  0.0258  1.0000  -5.4851   0.0000   0.0000   0.0000   0.2438
   8.000   0.8770   0.01510   0.00880   0.0007  0.0240  1.0000  -5.8687   0.0000   0.0000   0.0000   0.2425
   8.250   0.8998   0.01531   0.00902   0.0016  0.0209  1.0000  -6.2611   0.0000   0.0000   0.0000   0.2412
   8.500   0.9195   0.01590   0.00965   0.0030  0.0167  1.0000  -6.6226   0.0000   0.0000   0.0000   0.2395
   8.750   0.9409   0.01629   0.01003   0.0041  0.0124  1.0000  -6.9905   0.0000   0.0000   0.0000   0.2381
   9.000   0.9559   0.01750   0.01135   0.0064  0.0092  1.0000  -7.2309   0.0000   0.0000   0.0000   0.2355
   9.250   0.9750   0.01814   0.01209   0.0078  0.0082  1.0000  -7.5781   0.0000   0.0000   0.0000   0.2339
   9.500   0.9936   0.01885   0.01288   0.0093  0.0071  1.0000  -7.9184   0.0000   0.0000   0.0000   0.2322
   9.750   1.0107   0.01972   0.01383   0.0110  0.0060  1.0000  -8.2365   0.0000   0.0000   0.0000   0.2304
  10.000   1.0204   0.02146   0.01580   0.0138  0.0050  1.0000  -8.3822   0.0000   0.0000   0.0000   0.2275
  10.250   1.0196   0.02442   0.01918   0.0179  0.0045  1.0000  -8.3403   0.0000   0.0000   0.0000   0.2232
  10.750   1.0164   0.03007   0.02556   0.0251  0.0042  1.0000  -8.3937   0.0000   0.0000   0.0000   0.2156
  11.000   1.0169   0.03221   0.02795   0.0280  0.0042  1.0000  -8.5200   0.0000   0.0000   0.0000   0.2124
  11.250   1.0096   0.03447   0.03044   0.0318  0.0042  1.0000  -8.5786   0.0000   0.0000   0.0000   0.2081
  11.500   0.9969   0.03698   0.03317   0.0355  0.0042  1.0000  -8.5856   0.0000   0.0000   0.0000   0.2037
  11.750   0.9811   0.04012   0.03654   0.0377  0.0042  1.0000  -8.5488   0.0000   0.0000   0.0000   0.2006
  12.000   0.9624   0.04425   0.04090   0.0376  0.0042  1.0000  -8.4612   0.0000   0.0000   0.0000   0.1994
  12.250   0.9408   0.04997   0.04683   0.0346  0.0042  1.0000  -8.3062   0.0000   0.0000   0.0000   0.2013
  12.500   0.9158   0.05843   0.05551   0.0278  0.0042  1.0000  -8.0366   0.0000   0.0000   0.0000   0.2071
  12.750   0.8842   0.07039   0.06770   0.0184  0.0043  1.0000  -7.5814   0.0000   0.0000   0.0000   0.2163
  13.000   0.8716   0.07813   0.07552   0.0136  0.0043  1.0000  -7.4451   0.0000   0.0000   0.0000   0.2214
  13.250   0.8580   0.08582   0.08327   0.0093  0.0044  1.0000  -7.2859   0.0000   0.0000   0.0000   0.2259
  13.500   0.8435   0.09352   0.09101   0.0054  0.0045  1.0000  -7.1002   0.0000   0.0000   0.0000   0.2301
  13.750   0.8279   0.10133   0.09884   0.0016  0.0045  1.0000  -6.8804   0.0000   0.0000   0.0000   0.2344
  14.000   0.8109   0.10944   0.10698  -0.0022  0.0047  1.0000  -6.6102   0.0000   0.0000   0.0000   0.2389
  14.250   0.7906   0.11816   0.11572  -0.0062  0.0048  1.0000  -6.2473   0.0000   0.0000   0.0000   0.2440
  14.500   0.6808   0.15436   0.15184  -0.0199  0.0064  1.0000  -3.0251   0.0000   0.0000   0.0000   0.2675
  14.750   0.6762   0.16149   0.15896  -0.0225  0.0069  1.0000  -2.6868   0.0000   0.0000   0.0000   0.2715
  15.000   0.6757   0.16721   0.16466  -0.0245  0.0074  1.0000  -2.4882   0.0000   0.0000   0.0000   0.2745
  15.250   0.6773   0.17218   0.16962  -0.0264  0.0080  1.0000  -2.3626   0.0000   0.0000   0.0000   0.2770
  15.500   0.6794   0.17674   0.17417  -0.0281  0.0087  1.0000  -2.2785   0.0000   0.0000   0.0000   0.2792


