xflr5 v6.61

 Calculated polar for: KC-135 Winglet (supercritical Whitcomb)

 1 1 Reynolds number fixed          Mach number fixed         

 xtrf =   1.000 (top)        1.000 (bottom)
 Mach =   0.300     Re =     0.100 e 6     Ncrit =   9.000

  alpha     CL        CD       CDp       Cm    Top Xtr Bot Xtr   Cpmin    Chinge    XCp    
 ------- -------- --------- --------- -------- ------- ------- -------- --------- ---------
  -6.400  -0.4417   0.07631   0.07175  -0.0437  1.0000  0.1017  -1.6903   0.0000   0.0000   0.0000   0.1490
  -6.250  -0.4386   0.07362   0.06921  -0.0384  1.0000  0.1040  -1.5769   0.0000   0.0000   0.0000   0.1602
  -6.200  -0.4376   0.07309   0.06871  -0.0371  1.0000  0.1048  -1.5457   0.0000   0.0000   0.0000   0.1630
  -6.000  -0.4337   0.07115   0.06683  -0.0342  1.0000  0.1084  -1.4530   0.0000   0.0000   0.0000   0.1691
  -5.750  -0.4284   0.06821   0.06380  -0.0349  1.0000  0.1142  -1.3831   0.0000   0.0000   0.0000   0.1666
  -5.500  -0.4137   0.06369   0.05904  -0.0473  1.0000  0.1272  -1.4788   0.0000   0.0000   0.0000   0.1338
  -5.400  -0.4121   0.06195   0.05732  -0.0453  1.0000  0.1287  -1.4465   0.0000   0.0000   0.0000   0.1383
  -5.250  -0.4085   0.06033   0.05581  -0.0425  1.0000  0.1319  -1.3913   0.0000   0.0000   0.0000   0.1442
  -5.200  -0.4068   0.05988   0.05539  -0.0418  1.0000  0.1334  -1.3752   0.0000   0.0000   0.0000   0.1455
  -5.000  -0.3859   0.05697   0.05216  -0.0498  1.0000  0.1526  -1.3892   0.0000   0.0000   0.0000   0.1192
  -4.800  -0.3811   0.05452   0.04992  -0.0459  1.0000  0.1575  -1.3185   0.0000   0.0000   0.0000   0.1280
  -4.750  -0.3789   0.05410   0.04953  -0.0453  1.0000  0.1595  -1.3027   0.0000   0.0000   0.0000   0.1289
  -4.600  -0.3625   0.05224   0.04751  -0.0494  1.0000  0.1794  -1.2830   0.0000   0.0000   0.0000   0.1122
  -4.500  -0.3586   0.05143   0.04678  -0.0477  1.0000  0.1830  -1.2497   0.0000   0.0000   0.0000   0.1156
  -4.400  -0.3431   0.05183   0.04698  -0.0508  1.0000  0.2047  -1.2234   0.0000   0.0000   0.0000   0.1004
  -4.250  -0.3404   0.04860   0.04395  -0.0487  1.0000  0.2113  -1.1886   0.0000   0.0000   0.0000   0.1056
  -4.200  -0.3388   0.04810   0.04350  -0.0477  1.0000  0.2137  -1.1741   0.0000   0.0000   0.0000   0.1076
  -4.000  -0.3265   0.04672   0.04218  -0.0461  1.0000  0.2304  -1.1191   0.0000   0.0000   0.0000   0.1075
  -3.750  -0.3124   0.04444   0.04000  -0.0446  1.0000  0.2731  -1.0514   0.0000   0.0000   0.0000   0.1057
  -3.500  -0.3025   0.04303   0.03873  -0.0406  1.0000  0.3224  -0.9841   0.0000   0.0000   0.0000   0.1144
  -3.200  -0.1418   0.03170   0.02480  -0.0743  1.0000  0.1220  -1.2401   0.0000   0.0000   0.0000  -0.2775
  -3.000  -0.0990   0.02851   0.02089  -0.0767  1.0000  0.0810  -1.3356   0.0000   0.0000   0.0000  -0.5309
  -2.800  -0.0717   0.02751   0.01951  -0.0768  1.0000  0.0700  -1.3030   0.0000   0.0000   0.0000  -0.8285
  -2.750  -0.0634   0.02695   0.01889  -0.0773  1.0000  0.0681  -1.2974   0.0000   0.0000   0.0000  -0.9773
  -2.600  -0.0398   0.02571   0.01741  -0.0784  1.0000  0.0624  -1.2868   0.0000   0.0000   0.0000  -1.7305
  -2.500  -0.0247   0.02508   0.01660  -0.0787  1.0000  0.0587  -1.2875   0.0000   0.0000   0.0000  -2.9581
  -2.400  -0.0109   0.02466   0.01601  -0.0788  1.0000  0.0557  -1.2856   0.0000   0.0000   0.0000  -6.9963
  -2.250   0.0067   0.02447   0.01566  -0.0785  1.0000  0.0527  -1.2564   0.0000   0.0000   0.0000  11.9448
  -2.200   0.0122   0.02446   0.01562  -0.0784  1.0000  0.0521  -1.2403   0.0000   0.0000   0.0000   6.7028
  -2.000   0.0342   0.02435   0.01542  -0.0780  1.0000  0.0501  -1.1674   0.0000   0.0000   0.0000   2.5445
  -1.800   0.0649   0.02279   0.01381  -0.0794  1.0000  0.0480  -1.1307   0.0000   0.0000   0.0000   1.4787
  -1.750   0.0720   0.02255   0.01355  -0.0797  1.0000  0.0476  -1.1184   0.0000   0.0000   0.0000   1.3607
  -1.600   0.0931   0.02193   0.01292  -0.0803  1.0000  0.0464  -1.0787   0.0000   0.0000   0.0000   1.1164
  -1.500   0.1071   0.02159   0.01258  -0.0808  1.0000  0.0458  -1.0502   0.0000   0.0000   0.0000   1.0070
  -1.400   0.1212   0.02130   0.01230  -0.0813  1.0000  0.0453  -1.0199   0.0000   0.0000   0.0000   0.9227
  -1.250   0.1426   0.02097   0.01195  -0.0821  1.0000  0.0448  -0.9718   0.0000   0.0000   0.0000   0.8278
  -1.200   0.1496   0.02089   0.01185  -0.0824  1.0000  0.0447  -0.9552   0.0000   0.0000   0.0000   0.8024
  -1.000   0.1775   0.02066   0.01152  -0.0836  1.0000  0.0448  -0.8865   0.0000   0.0000   0.0000   0.7219
  -0.800   0.2044   0.02058   0.01132  -0.0846  1.0000  0.0457  -0.8168   0.0000   0.0000   0.0000   0.6646
  -0.750   0.2109   0.02058   0.01128  -0.0848  1.0000  0.0461  -0.7996   0.0000   0.0000   0.0000   0.6528
  -0.600   0.2300   0.02061   0.01122  -0.0854  1.0000  0.0479  -0.7492   0.0000   0.0000   0.0000   0.6216
  -0.500   0.2424   0.02067   0.01121  -0.0857  1.0000  0.0496  -0.7170   0.0000   0.0000   0.0000   0.6038
  -0.400   0.2902   0.01896   0.01133  -0.0936  1.0000  0.5806  -0.6568   0.0000   0.0000   0.0000   0.5726
  -0.250   0.2971   0.01920   0.01202  -0.0907  1.0000  0.7375  -0.6319   0.0000   0.0000   0.0000   0.5551
  -0.200   0.2982   0.01931   0.01219  -0.0895  1.0000  0.7606  -0.6224   0.0000   0.0000   0.0000   0.5499
   0.000   0.3073   0.01970   0.01263  -0.0862  1.0000  0.8094  -0.5688   0.0000   0.0000   0.0000   0.5300
   0.200   0.3144   0.01999   0.01298  -0.0825  1.0000  0.8520  -0.5074   0.0000   0.0000   0.0000   0.5119
   0.250   0.3131   0.02000   0.01302  -0.0809  1.0000  0.8625  -0.4975   0.0000   0.0000   0.0000   0.5076
   0.400   0.3111   0.02001   0.01310  -0.0765  1.0000  0.9016  -0.4652   0.0000   0.0000   0.0000   0.4949
   0.500   0.3104   0.01996   0.01308  -0.0739  1.0000  0.9224  -0.4738   0.0000   0.0000   0.0000   0.4871
   0.600   0.3173   0.02007   0.01317  -0.0733  1.0000  0.9306  -0.4894   0.0000   0.0000   0.0000   0.4798
   0.750   0.3339   0.02013   0.01320  -0.0736  0.9957  0.9422  -0.5190   0.0000   0.0000   0.0000   0.4693
   0.800   0.3405   0.02016   0.01321  -0.0740  0.9936  0.9470  -0.5306   0.0000   0.0000   0.0000   0.4660
   1.000   0.3696   0.02028   0.01330  -0.0760  0.9826  1.0000  -0.5854   0.0000   0.0000   0.0000   0.4543
   1.200   0.4213   0.02079   0.01374  -0.0822  0.9761  1.0000  -0.6689   0.0000   0.0000   0.0000   0.4435
   1.250   0.4329   0.02089   0.01384  -0.0834  0.9740  1.0000  -0.6884   0.0000   0.0000   0.0000   0.4412
   1.400   0.4550   0.02092   0.01387  -0.0847  0.9629  1.0000  -0.7339   0.0000   0.0000   0.0000   0.4346
   1.500   0.4806   0.02096   0.01394  -0.0875  0.9569  1.0000  -0.7839   0.0000   0.0000   0.0000   0.4303
   1.600   0.5102   0.02101   0.01409  -0.0909  0.9522  1.0000  -0.8335   0.0000   0.0000   0.0000   0.4264
   1.750   0.5346   0.02104   0.01415  -0.0924  0.9411  1.0000  -0.8900   0.0000   0.0000   0.0000   0.4209
   1.800   0.5445   0.02100   0.01412  -0.0931  0.9371  1.0000  -0.9118   0.0000   0.0000   0.0000   0.4190
   2.000   0.6004   0.02046   0.01364  -0.0983  0.9206  1.0000  -1.0274   0.0000   0.0000   0.0000   0.4115
   2.200   0.6645   0.01903   0.01231  -0.1034  0.8996  1.0000  -1.1625   0.0000   0.0000   0.0000   0.4034
   2.250   0.6631   0.01914   0.01244  -0.1021  0.8932  1.0000  -1.1679   0.0000   0.0000   0.0000   0.4018
   2.400   0.7012   0.01822   0.01160  -0.1043  0.8793  1.0000  -1.2558   0.0000   0.0000   0.0000   0.3964
   2.500   0.7242   0.01773   0.01117  -0.1055  0.8726  1.0000  -1.3108   0.0000   0.0000   0.0000   0.3932
   2.600   0.7347   0.01765   0.01114  -0.1049  0.8624  1.0000  -1.3448   0.0000   0.0000   0.0000   0.3903
   2.750   0.7687   0.01680   0.01040  -0.1063  0.8515  1.0000  -1.4282   0.0000   0.0000   0.0000   0.3857
   2.800   0.7750   0.01671   0.01033  -0.1061  0.8462  1.0000  -1.4474   0.0000   0.0000   0.0000   0.3842
   3.000   0.8062   0.01587   0.00961  -0.1054  0.8207  1.0000  -1.5362   0.0000   0.0000   0.0000   0.3780
   3.200   0.8344   0.01501   0.00882  -0.1039  0.7810  1.0000  -1.6207   0.0000   0.0000   0.0000   0.3715
   3.250   0.8413   0.01482   0.00863  -0.1035  0.7675  1.0000  -1.6558   0.0000   0.0000   0.0000   0.3700
   3.400   0.8590   0.01439   0.00814  -0.1017  0.7069  1.0000  -1.7592   0.0000   0.0000   0.0000   0.3652
   3.500   0.8709   0.01420   0.00755  -0.0999  0.6007  1.0000  -1.8306   0.0000   0.0000   0.0000   0.3614
   3.600   0.8730   0.01515   0.00761  -0.0971  0.4347  1.0000  -1.8487   0.0000   0.0000   0.0000   0.3578
   3.750   0.8765   0.01689   0.00834  -0.0948  0.2969  1.0000  -1.9011   0.0000   0.0000   0.0000   0.3547
   3.800   0.8802   0.01729   0.00859  -0.0945  0.2723  1.0000  -1.9247   0.0000   0.0000   0.0000   0.3538
   4.000   0.8978   0.01861   0.00952  -0.0936  0.2185  1.0000  -2.0308   0.0000   0.0000   0.0000   0.3505
   4.200   0.9178   0.01985   0.01057  -0.0929  0.1910  1.0000  -2.1433   0.0000   0.0000   0.0000   0.3473
   4.250   0.9232   0.02007   0.01078  -0.0928  0.1868  1.0000  -2.1749   0.0000   0.0000   0.0000   0.3466
   4.400   0.9384   0.02098   0.01152  -0.0925  0.1764  1.0000  -2.2681   0.0000   0.0000   0.0000   0.3444
   4.500   0.9500   0.02153   0.01207  -0.0924  0.1707  1.0000  -2.3303   0.0000   0.0000   0.0000   0.3430
   4.600   0.9618   0.02202   0.01259  -0.0923  0.1651  1.0000  -2.3941   0.0000   0.0000   0.0000   0.3416
   4.750   0.9790   0.02286   0.01338  -0.0921  0.1575  1.0000  -2.4910   0.0000   0.0000   0.0000   0.3396
   4.800   0.9847   0.02320   0.01368  -0.0921  0.1552  1.0000  -2.5235   0.0000   0.0000   0.0000   0.3390
   5.000   1.0096   0.02490   0.01535  -0.0922  0.1473  1.0000  -2.6464   0.0000   0.0000   0.0000   0.3366
   5.200   1.0348   0.02617   0.01681  -0.0921  0.1405  1.0000  -2.7653   0.0000   0.0000   0.0000   0.3341
   5.250   1.0406   0.02644   0.01710  -0.0920  0.1380  1.0000  -2.7968   0.0000   0.0000   0.0000   0.3335
   5.400   1.0556   0.02743   0.01804  -0.0919  0.1272  1.0000  -2.9157   0.0000   0.0000   0.0000   0.3319
   5.500   1.0652   0.02792   0.01865  -0.0916  0.1196  1.0000  -2.9962   0.0000   0.0000   0.0000   0.3307
   5.600   1.0748   0.02816   0.01897  -0.0912  0.1121  1.0000  -3.0695   0.0000   0.0000   0.0000   0.3295
   5.750   1.0891   0.02914   0.01985  -0.0909  0.1030  1.0000  -3.1726   0.0000   0.0000   0.0000   0.3279
   5.800   1.0950   0.03041   0.02114  -0.0910  0.1001  1.0000  -3.1847   0.0000   0.0000   0.0000   0.3276
   6.000   1.1162   0.03181   0.02294  -0.0900  0.0926  1.0000  -3.2449   0.0000   0.0000   0.0000   0.3249
   6.200   1.1358   0.03371   0.02509  -0.0890  0.0843  1.0000  -3.2912   0.0000   0.0000   0.0000   0.3224
   6.250   1.1404   0.03420   0.02562  -0.0888  0.0826  1.0000  -3.3056   0.0000   0.0000   0.0000   0.3218
   6.400   1.1535   0.03610   0.02758  -0.0881  0.0784  1.0000  -3.3448   0.0000   0.0000   0.0000   0.3203
   6.500   1.1603   0.03838   0.03001  -0.0877  0.0762  1.0000  -3.3400   0.0000   0.0000   0.0000   0.3193
   6.600   1.1644   0.04112   0.03299  -0.0869  0.0748  1.0000  -3.3102   0.0000   0.0000   0.0000   0.3183
   6.750   1.1746   0.04282   0.03501  -0.0856  0.0738  1.0000  -3.3205   0.0000   0.0000   0.0000   0.3165
   6.800   1.1776   0.04348   0.03578  -0.0851  0.0735  1.0000  -3.3214   0.0000   0.0000   0.0000   0.3158
   7.000   1.1874   0.04645   0.03918  -0.0833  0.0725  1.0000  -3.3163   0.0000   0.0000   0.0000   0.3135
   7.200   1.1938   0.04977   0.04291  -0.0812  0.0720  1.0000  -3.3016   0.0000   0.0000   0.0000   0.3113
   7.250   1.1949   0.05064   0.04388  -0.0807  0.0719  1.0000  -3.2968   0.0000   0.0000   0.0000   0.3107
   7.400   1.1969   0.05332   0.04684  -0.0791  0.0718  1.0000  -3.2978   0.0000   0.0000   0.0000   0.3092
   7.500   1.1973   0.05516   0.04885  -0.0781  0.0718  1.0000  -3.2992   0.0000   0.0000   0.0000   0.3082
   7.600   1.1969   0.05704   0.05090  -0.0770  0.0719  1.0000  -3.2982   0.0000   0.0000   0.0000   0.3073
   7.750   1.1949   0.05991   0.05400  -0.0754  0.0720  1.0000  -3.2924   0.0000   0.0000   0.0000   0.3059
   7.800   1.1938   0.06088   0.05503  -0.0749  0.0721  1.0000  -3.2894   0.0000   0.0000   0.0000   0.3055
   8.000   1.1878   0.06480   0.05922  -0.0728  0.0724  1.0000  -3.2722   0.0000   0.0000   0.0000   0.3039
   8.200   1.1789   0.06879   0.06344  -0.0707  0.0729  1.0000  -3.2471   0.0000   0.0000   0.0000   0.3025
   8.250   1.1762   0.06980   0.06450  -0.0703  0.0730  1.0000  -3.2396   0.0000   0.0000   0.0000   0.3022
   8.400   1.1674   0.07288   0.06771  -0.0689  0.0733  1.0000  -3.2144   0.0000   0.0000   0.0000   0.3013
   8.500   1.1606   0.07495   0.06986  -0.0680  0.0736  1.0000  -3.1952   0.0000   0.0000   0.0000   0.3008
   8.600   1.1529   0.07697   0.07194  -0.0670  0.0739  1.0000  -3.1740   0.0000   0.0000   0.0000   0.3003
   8.750   1.1423   0.08092   0.07595  -0.0661  0.0745  1.0000  -3.1356   0.0000   0.0000   0.0000   0.2999
   8.800   1.1450   0.08222   0.07731  -0.0661  0.0752  1.0000  -3.1440   0.0000   0.0000   0.0000   0.2997
   9.000   1.1363   0.08417   0.07941  -0.0644  0.0759  1.0000  -3.1434   0.0000   0.0000   0.0000   0.2985
   9.200   1.1205   0.08712   0.08254  -0.0639  0.0770  1.0000  -3.0914   0.0000   0.0000   0.0000   0.2987
   9.400   1.0908   0.09273   0.08835  -0.0665  0.0787  1.0000  -2.9329   0.0000   0.0000   0.0000   0.3024
   9.600   1.0372   0.10696   0.10272  -0.0796  0.0827  1.0000  -2.5190   0.0000   0.0000   0.0000   0.3183
   9.800   1.0139   0.11792   0.11364  -0.0882  0.0877  1.0000  -2.2875   0.0000   0.0000   0.0000   0.3285
  10.000   1.0055   0.12449   0.12018  -0.0914  0.0923  1.0000  -2.2026   0.0000   0.0000   0.0000   0.3323
  10.200   0.9821   0.13862   0.13432  -0.1022  0.1348  1.0000  -1.8453   0.0000   0.0000   0.0000   0.3457
  10.400   0.9805   0.14309   0.13878  -0.1041  0.1343  1.0000  -1.8229   0.0000   0.0000   0.0000   0.3476
  10.600   0.9809   0.14719   0.14288  -0.1055  0.1330  1.0000  -1.8145   0.0000   0.0000   0.0000   0.3489
  10.800   0.9835   0.15101   0.14670  -0.1065  0.1314  1.0000  -1.8202   0.0000   0.0000   0.0000   0.3493
  11.000   0.9884   0.15469   0.15039  -0.1068  0.1298  1.0000  -1.8411   0.0000   0.0000   0.0000   0.3489
  11.200   0.9963   0.15842   0.15414  -0.1065  0.1283  1.0000  -1.8798   0.0000   0.0000   0.0000   0.3475
  11.400   1.0074   0.16256   0.15832  -0.1053  0.1269  1.0000  -1.9383   0.0000   0.0000   0.0000   0.3449
  11.600   1.0253   0.17107   0.16686  -0.1014  0.1249  1.0000  -2.0321   0.0000   0.0000   0.0000   0.3391
  11.800   1.0214   0.17523   0.17100  -0.1046  0.1247  1.0000  -1.9875   0.0000   0.0000   0.0000   0.3424
  12.000   1.0146   0.17889   0.17464  -0.1086  0.1243  1.0000  -1.9260   0.0000   0.0000   0.0000   0.3468
  12.200   1.0037   0.18144   0.17714  -0.1141  0.1233  1.0000  -1.8353   0.0000   0.0000   0.0000   0.3532
  12.400   0.9894   0.18323   0.17887  -0.1211  0.1188  1.0000  -1.7175   0.0000   0.0000   0.0000   0.3617
  12.600   0.9900   0.18656   0.18220  -0.1235  0.1155  1.0000  -1.6974   0.0000   0.0000   0.0000   0.3638
  12.800   0.9929   0.18991   0.18555  -0.1253  0.1128  1.0000  -1.6925   0.0000   0.0000   0.0000   0.3650
  13.000   0.9970   0.19325   0.18890  -0.1267  0.1104  1.0000  -1.6961   0.0000   0.0000   0.0000   0.3657
  13.200   1.0024   0.19660   0.19227  -0.1278  0.1082  1.0000  -1.7558   0.0000   0.0000   0.0000   0.3659
  13.400   1.0098   0.20003   0.19572  -0.1284  0.1059  1.0000  -1.8473   0.0000   0.0000   0.0000   0.3652
  13.600   0.6065   0.12444   0.12063  -0.0678  0.1211  1.0000  -0.9609   0.0000   0.0000   0.0000   0.3540
  13.800   0.6050   0.12638   0.12257  -0.0700  0.1172  1.0000  -0.9311   0.0000   0.0000   0.0000   0.3577
  14.000   0.6086   0.12911   0.12530  -0.0715  0.1141  1.0000  -0.9226   0.0000   0.0000   0.0000   0.3593
  14.200   0.6136   0.13197   0.12816  -0.0728  0.1114  1.0000  -0.9228   0.0000   0.0000   0.0000   0.3602
  14.400   0.6195   0.13491   0.13112  -0.0739  0.1090  1.0000  -0.9297   0.0000   0.0000   0.0000   0.3607
  14.600   0.6266   0.13797   0.13418  -0.0749  0.1068  1.0000  -0.9436   0.0000   0.0000   0.0000   0.3606
  14.800   0.6352   0.14128   0.13751  -0.0756  0.1048  1.0000  -0.9667   0.0000   0.0000   0.0000   0.3599
  15.000   0.6469   0.14528   0.14154  -0.0760  0.1030  1.0000  -1.0046   0.0000   0.0000   0.0000   0.3579


